MODEL 1
REMARK VINA RESULT:     -11.1      0.000      0.000
REMARK  24 active torsions:
REMARK  status: ('A' for Active; 'I' for Inactive)
REMARK    1  A    between atoms: CA_2  and  C_3 
REMARK       I    between atoms: N_10  and  C_3 
REMARK    2  A    between atoms: CA_11  and  N_10 
REMARK    3  A    between atoms: CA_11  and  C_12 
REMARK       I    between atoms: N_16  and  C_12 
REMARK    4  A    between atoms: CA_17  and  N_16 
REMARK    5  A    between atoms: CA_17  and  CB_20 
REMARK    6  A    between atoms: CA_17  and  C_18 
REMARK       I    between atoms: N_28  and  C_18 
REMARK    7  A    between atoms: CB_20  and  CG_21 
REMARK    8  A    between atoms: CA_29  and  N_28 
REMARK    9  A    between atoms: CA_29  and  CB_32 
REMARK   10  A    between atoms: CA_29  and  C_30 
REMARK       I    between atoms: N_40  and  C_30 
REMARK   11  A    between atoms: CB_32  and  CG_33 
REMARK   12  A    between atoms: CA_41  and  N_40 
REMARK   13  A    between atoms: CA_41  and  CB_44 
REMARK   14  A    between atoms: CA_41  and  C_42 
REMARK       I    between atoms: N_48  and  C_42 
REMARK   15  A    between atoms: CB_44  and  OG_45 
REMARK   16  A    between atoms: CA_49  and  N_48 
REMARK   17  A    between atoms: CA_49  and  CB_52 
REMARK   18  A    between atoms: CA_49  and  C_50 
REMARK       I    between atoms: N_64  and  C_50 
REMARK   19  A    between atoms: CB_52  and  CG_53 
REMARK   20  A    between atoms: CA_65  and  N_64 
REMARK   21  A    between atoms: CA_65  and  CB_68 
REMARK   22  A    between atoms: CA_65  and  C_66 
REMARK   23  A    between atoms: O_72  and  C_66 
REMARK   24  A    between atoms: CB_68  and  OG_69 
ROOT
ATOM      1  CA  HIS A   4      34.953   3.497 -11.296  0.00  0.00     0.225 C 
ENDROOT
BRANCH   1   2
ATOM      2  N   HIS A   4      36.031   2.539 -11.546  0.00  0.00    -0.262 N 
ATOM      3  HN  HIS A   4      36.189   2.301 -12.514  0.00  0.00     0.189 HD
ATOM      4  C   PHE A   3      36.677   1.827 -10.609  0.00  0.00     0.206 C 
ATOM      5  O   PHE A   3      36.568   2.034  -9.404  0.00  0.00    -0.394 OA
BRANCH   4   6
ATOM      6  CA  PHE A   3      37.529   0.656 -11.103  0.00  0.00     0.223 C 
BRANCH   6   7
ATOM      7  N   PHE A   3      36.727  -0.129 -12.036  0.00  0.00    -0.262 N 
ATOM      8  HN  PHE A   3      36.193   0.386 -12.724  0.00  0.00     0.189 HD
ATOM      9  C   ALA A   2      36.546  -1.452 -11.940  0.00  0.00     0.204 C 
ATOM     10  O   ALA A   2      37.127  -2.152 -11.110  0.00  0.00    -0.394 OA
BRANCH   9  11
ATOM     11  CA  ALA A   2      35.576  -2.089 -12.935  0.00  0.00     0.208 C 
ATOM     12  CB  ALA A   2      35.027  -1.041 -13.907  0.00  0.00     0.059 C 
BRANCH  11  13
ATOM     13  N   ALA A   2      34.482  -2.696 -12.190  0.00  0.00    -0.261 N 
ATOM     14  HN  ALA A   2      34.006  -2.083 -11.542  0.00  0.00     0.189 HD
ATOM     15  C   PRO A   1      34.157  -3.994 -12.246  0.00  0.00     0.241 C 
ATOM     16  O   PRO A   1      34.709  -4.804 -12.991  0.00  0.00    -0.390 OA
BRANCH  15  17
ATOM     17  CA  PRO A   1      33.028  -4.476 -11.333  0.00  0.00     0.309 C 
ATOM     18  CB  PRO A   1      31.960  -5.268 -12.105  0.00  0.00     0.098 C 
ATOM     19  CG  PRO A   1      30.839  -4.252 -12.322  0.00  0.00     0.074 C 
ATOM     20  CD  PRO A   1      30.937  -3.432 -11.041  0.00  0.00     0.280 C 
ATOM     21  N   PRO A   1      32.374  -3.289 -10.744  0.00  0.00    -0.414 N 
ATOM     22  H1  PRO A   1      32.563  -3.196  -9.756  0.00  0.00     0.369 HD
ATOM     23  H2  PRO A   1      32.765  -2.496 -11.250  0.00  0.00     0.369 HD
ENDBRANCH  15  17
ENDBRANCH  11  13
ENDBRANCH   9  11
ENDBRANCH   6   7
BRANCH   6  24
ATOM     24  CB  PHE A   3      38.837   1.107 -11.778  0.00  0.00     0.116 C 
BRANCH  24  25
ATOM     25  CG  PHE A   3      39.624   0.046 -12.536  0.00  0.00    -0.039 A 
ATOM     26  CD1 PHE A   3      39.517  -0.017 -13.940  0.00  0.00    -0.004 A 
ATOM     27  CE1 PHE A   3      40.193  -1.015 -14.662  0.00  0.00    -0.009 A 
ATOM     28  CZ  PHE A   3      40.990  -1.955 -13.987  0.00  0.00    -0.013 A 
ATOM     29  CE2 PHE A   3      41.104  -1.899 -12.589  0.00  0.00    -0.009 A 
ATOM     30  CD2 PHE A   3      40.419  -0.908 -11.864  0.00  0.00    -0.004 A 
ENDBRANCH  24  25
ENDBRANCH   6  24
ENDBRANCH   4   6
ENDBRANCH   1   2
BRANCH   1  31
ATOM     31  CB  HIS A   4      35.361   4.890 -11.819  0.00  0.00     0.141 C 
BRANCH  31  32
ATOM     32  CG  HIS A   4      34.557   6.042 -11.258  0.00  0.00     0.056 A 
ATOM     33  ND1 HIS A   4      34.242   7.206 -11.922  0.00  0.00    -0.262 N 
ATOM     34  CE1 HIS A   4      33.555   7.992 -11.076  0.00  0.00     0.202 A 
ATOM     35  HD1 HIS A   4      34.475   7.425 -12.881  0.00  0.00     0.239 HD
ATOM     36  NE2 HIS A   4      33.421   7.403  -9.877  0.00  0.00    -0.344 NA
ATOM     37  CD2 HIS A   4      34.045   6.158  -9.991  0.00  0.00     0.005 A 
ENDBRANCH  31  32
ENDBRANCH   1  31
BRANCH   1  38
ATOM     38  C   HIS A   4      33.596   3.022 -11.836  0.00  0.00     0.206 C 
ATOM     39  O   HIS A   4      33.171   3.430 -12.918  0.00  0.00    -0.394 OA
ATOM     40  N   SER A   5      32.905   2.177 -11.058  0.00  0.00    -0.261 N 
ATOM     41  HN  SER A   5      33.306   1.881 -10.180  0.00  0.00     0.188 HD
BRANCH  40  42
ATOM     42  CA  SER A   5      31.585   1.637 -11.362  0.00  0.00     0.236 C 
BRANCH  42  43
ATOM     43  CB  SER A   5      31.610   0.122 -11.094  0.00  0.00     0.206 C 
BRANCH  43  44
ATOM     44  OG  SER A   5      32.907  -0.328 -10.741  0.00  0.00    -0.390 OA
ATOM     45  HG  SER A   5      33.016  -0.233  -9.791  0.00  0.00     0.210 HD
ENDBRANCH  43  44
ENDBRANCH  42  43
BRANCH  42  46
ATOM     46  C   SER A   5      30.494   2.375 -10.565  0.00  0.00     0.206 C 
ATOM     47  O   SER A   5      30.661   2.684  -9.384  0.00  0.00    -0.394 OA
ATOM     48  N   TRP A   6      29.365   2.652 -11.230  0.00  0.00    -0.263 N 
ATOM     49  HN  TRP A   6      29.308   2.376 -12.204  0.00  0.00     0.188 HD
BRANCH  48  50
ATOM     50  CA  TRP A   6      28.241   3.402 -10.694  0.00  0.00     0.217 C 
BRANCH  50  51
ATOM     51  CB  TRP A   6      28.433   4.899 -10.979  0.00  0.00     0.084 C 
BRANCH  51  52
ATOM     52  CG  TRP A   6      29.326   5.293 -12.128  0.00  0.00    -0.042 A 
ATOM     53  CD1 TRP A   6      30.580   5.769 -11.969  0.00  0.00     0.096 A 
ATOM     54  NE1 TRP A   6      31.157   6.022 -13.191  0.00  0.00    -0.289 N 
ATOM     55  CE2 TRP A   6      30.301   5.719 -14.226  0.00  0.00     0.060 A 
ATOM     56  HE1 TRP A   6      32.100   6.371 -13.289  0.00  0.00     0.222 HD
ATOM     57  CD2 TRP A   6      29.110   5.256 -13.583  0.00  0.00    -0.021 A 
ATOM     58  CZ2 TRP A   6      30.430   5.798 -15.621  0.00  0.00     0.010 A 
ATOM     59  CE3 TRP A   6      28.045   4.883 -14.439  0.00  0.00    -0.021 A 
ATOM     60  CZ3 TRP A   6      28.161   4.965 -15.839  0.00  0.00    -0.028 A 
ATOM     61  CH2 TRP A   6      29.351   5.418 -16.432  0.00  0.00    -0.024 A 
ENDBRANCH  51  52
ENDBRANCH  50  51
BRANCH  50  62
ATOM     62  C   TRP A   6      26.937   2.860 -11.288  0.00  0.00     0.205 C 
ATOM     63  O   TRP A   6      25.919   3.552 -11.322  0.00  0.00    -0.394 OA
ATOM     64  N   SER A   7      26.995   1.627 -11.804  0.00  0.00    -0.260 N 
ATOM     65  HN  SER A   7      27.866   1.117 -11.768  0.00  0.00     0.189 HD
BRANCH  64  66
ATOM     66  CA  SER A   7      25.929   1.007 -12.576  0.00  0.00     0.249 C 
BRANCH  66  67
ATOM     67  CB  SER A   7      26.492   0.543 -13.929  0.00  0.00     0.207 C 
BRANCH  67  68
ATOM     68  OG  SER A   7      25.528   0.609 -14.964  0.00  0.00    -0.390 OA
ATOM     69  HG  SER A   7      25.370   1.536 -15.184  0.00  0.00     0.210 HD
ENDBRANCH  67  68
ENDBRANCH  66  67
BRANCH  66  70
ATOM     70  C   SER A   7      25.321  -0.160 -11.789  0.00  0.00     0.259 C 
ATOM     71  O   SER A   7      25.427  -0.275 -10.569  0.00  0.00    -0.368 OA
BRANCH  70  72
ATOM     72  O   OH8 A          24.341  -0.817 -12.478  0.00  0.00    -0.291 OA
ATOM     73  HO  OH8 A          23.914  -1.514 -11.975  0.00  0.00     0.254 HD
ENDBRANCH  70  72
ENDBRANCH  66  70
ENDBRANCH  64  66
ENDBRANCH  50  62
ENDBRANCH  48  50
ENDBRANCH  42  46
ENDBRANCH  40  42
ENDBRANCH   1  38
TORSDOF 24
ENDMDL
MODEL 2
REMARK VINA RESULT:     -10.5      2.292      5.627
REMARK  24 active torsions:
REMARK  status: ('A' for Active; 'I' for Inactive)
REMARK    1  A    between atoms: CA_2  and  C_3 
REMARK       I    between atoms: N_10  and  C_3 
REMARK    2  A    between atoms: CA_11  and  N_10 
REMARK    3  A    between atoms: CA_11  and  C_12 
REMARK       I    between atoms: N_16  and  C_12 
REMARK    4  A    between atoms: CA_17  and  N_16 
REMARK    5  A    between atoms: CA_17  and  CB_20 
REMARK    6  A    between atoms: CA_17  and  C_18 
REMARK       I    between atoms: N_28  and  C_18 
REMARK    7  A    between atoms: CB_20  and  CG_21 
REMARK    8  A    between atoms: CA_29  and  N_28 
REMARK    9  A    between atoms: CA_29  and  CB_32 
REMARK   10  A    between atoms: CA_29  and  C_30 
REMARK       I    between atoms: N_40  and  C_30 
REMARK   11  A    between atoms: CB_32  and  CG_33 
REMARK   12  A    between atoms: CA_41  and  N_40 
REMARK   13  A    between atoms: CA_41  and  CB_44 
REMARK   14  A    between atoms: CA_41  and  C_42 
REMARK       I    between atoms: N_48  and  C_42 
REMARK   15  A    between atoms: CB_44  and  OG_45 
REMARK   16  A    between atoms: CA_49  and  N_48 
REMARK   17  A    between atoms: CA_49  and  CB_52 
REMARK   18  A    between atoms: CA_49  and  C_50 
REMARK       I    between atoms: N_64  and  C_50 
REMARK   19  A    between atoms: CB_52  and  CG_53 
REMARK   20  A    between atoms: CA_65  and  N_64 
REMARK   21  A    between atoms: CA_65  and  CB_68 
REMARK   22  A    between atoms: CA_65  and  C_66 
REMARK   23  A    between atoms: O_72  and  C_66 
REMARK   24  A    between atoms: CB_68  and  OG_69 
ROOT
ATOM      1  CA  HIS A   4      33.075  -0.721 -11.559  0.00  0.00     0.225 C 
ENDROOT
BRANCH   1   2
ATOM      2  N   HIS A   4      34.277  -0.096 -11.008  0.00  0.00    -0.262 N 
ATOM      3  HN  HIS A   4      34.148   0.820 -10.604  0.00  0.00     0.189 HD
ATOM      4  C   PHE A   3      35.533  -0.543 -11.165  0.00  0.00     0.206 C 
ATOM      5  O   PHE A   3      35.809  -1.643 -11.637  0.00  0.00    -0.394 OA
BRANCH   4   6
ATOM      6  CA  PHE A   3      36.659   0.426 -10.795  0.00  0.00     0.223 C 
BRANCH   6   7
ATOM      7  N   PHE A   3      36.164   1.787 -10.969  0.00  0.00    -0.262 N 
ATOM      8  HN  PHE A   3      35.906   2.290 -10.130  0.00  0.00     0.189 HD
ATOM      9  C   ALA A   2      35.897   2.342 -12.158  0.00  0.00     0.204 C 
ATOM     10  O   ALA A   2      36.144   1.787 -13.230  0.00  0.00    -0.394 OA
BRANCH   9  11
ATOM     11  CA  ALA A   2      35.270   3.736 -12.143  0.00  0.00     0.208 C 
ATOM     12  CB  ALA A   2      36.121   4.707 -11.319  0.00  0.00     0.059 C 
BRANCH  11  13
ATOM     13  N   ALA A   2      33.935   3.637 -11.570  0.00  0.00    -0.261 N 
ATOM     14  HN  ALA A   2      33.701   2.739 -11.170  0.00  0.00     0.189 HD
ATOM     15  C   PRO A   1      33.010   4.602 -11.637  0.00  0.00     0.241 C 
ATOM     16  O   PRO A   1      33.215   5.711 -12.133  0.00  0.00    -0.390 OA
BRANCH  15  17
ATOM     17  CA  PRO A   1      31.631   4.296 -11.050  0.00  0.00     0.309 C 
ATOM     18  CB  PRO A   1      31.024   5.515 -10.337  0.00  0.00     0.098 C 
ATOM     19  CG  PRO A   1      31.294   5.244  -8.857  0.00  0.00     0.074 C 
ATOM     20  CD  PRO A   1      31.170   3.726  -8.812  0.00  0.00     0.280 C 
ATOM     21  N   PRO A   1      31.785   3.217 -10.052  0.00  0.00    -0.414 N 
ATOM     22  H1  PRO A   1      31.379   2.345 -10.362  0.00  0.00     0.369 HD
ATOM     23  H2  PRO A   1      32.791   3.112  -9.933  0.00  0.00     0.369 HD
ENDBRANCH  15  17
ENDBRANCH  11  13
ENDBRANCH   9  11
ENDBRANCH   6   7
BRANCH   6  24
ATOM     24  CB  PHE A   3      37.172   0.228  -9.357  0.00  0.00     0.116 C 
BRANCH  24  25
ATOM     25  CG  PHE A   3      38.489   0.902  -8.995  0.00  0.00    -0.039 A 
ATOM     26  CD1 PHE A   3      39.678   0.467  -9.617  0.00  0.00    -0.004 A 
ATOM     27  CE1 PHE A   3      40.914   1.037  -9.267  0.00  0.00    -0.009 A 
ATOM     28  CZ  PHE A   3      40.972   2.054  -8.299  0.00  0.00    -0.013 A 
ATOM     29  CE2 PHE A   3      39.793   2.493  -7.676  0.00  0.00    -0.009 A 
ATOM     30  CD2 PHE A   3      38.557   1.916  -8.015  0.00  0.00    -0.004 A 
ENDBRANCH  24  25
ENDBRANCH   6  24
ENDBRANCH   4   6
ENDBRANCH   1   2
BRANCH   1  31
ATOM     31  CB  HIS A   4      32.394  -1.586 -10.478  0.00  0.00     0.141 C 
BRANCH  31  32
ATOM     32  CG  HIS A   4      32.109  -3.013 -10.890  0.00  0.00     0.056 A 
ATOM     33  ND1 HIS A   4      32.916  -3.803 -11.678  0.00  0.00    -0.262 N 
ATOM     34  CE1 HIS A   4      32.298  -4.985 -11.849  0.00  0.00     0.202 A 
ATOM     35  HD1 HIS A   4      33.817  -3.545 -12.053  0.00  0.00     0.239 HD
ATOM     36  NE2 HIS A   4      31.111  -4.999 -11.221  0.00  0.00    -0.344 NA
ATOM     37  CD2 HIS A   4      30.991  -3.754 -10.600  0.00  0.00     0.005 A 
ENDBRANCH  31  32
ENDBRANCH   1  31
BRANCH   1  38
ATOM     38  C   HIS A   4      32.122   0.291 -12.212  0.00  0.00     0.206 C 
ATOM     39  O   HIS A   4      32.549   1.349 -12.677  0.00  0.00    -0.394 OA
ATOM     40  N   SER A   5      30.821  -0.030 -12.217  0.00  0.00    -0.261 N 
ATOM     41  HN  SER A   5      30.532  -0.911 -11.818  0.00  0.00     0.188 HD
BRANCH  40  42
ATOM     42  CA  SER A   5      29.748   0.802 -12.751  0.00  0.00     0.236 C 
BRANCH  42  43
ATOM     43  CB  SER A   5      28.897  -0.058 -13.700  0.00  0.00     0.206 C 
BRANCH  43  44
ATOM     44  OG  SER A   5      27.560  -0.179 -13.244  0.00  0.00    -0.390 OA
ATOM     45  HG  SER A   5      27.485  -0.984 -12.725  0.00  0.00     0.210 HD
ENDBRANCH  43  44
ENDBRANCH  42  43
BRANCH  42  46
ATOM     46  C   SER A   5      28.930   1.438 -11.611  0.00  0.00     0.206 C 
ATOM     47  O   SER A   5      28.866   0.914 -10.498  0.00  0.00    -0.394 OA
ATOM     48  N   TRP A   6      28.297   2.580 -11.908  0.00  0.00    -0.263 N 
ATOM     49  HN  TRP A   6      28.408   2.955 -12.843  0.00  0.00     0.188 HD
BRANCH  48  50
ATOM     50  CA  TRP A   6      27.532   3.381 -10.966  0.00  0.00     0.217 C 
BRANCH  50  51
ATOM     51  CB  TRP A   6      27.561   4.855 -11.396  0.00  0.00     0.084 C 
BRANCH  51  52
ATOM     52  CG  TRP A   6      27.470   5.166 -12.869  0.00  0.00    -0.042 A 
ATOM     53  CD1 TRP A   6      26.303   5.391 -13.513  0.00  0.00     0.096 A 
ATOM     54  NE1 TRP A   6      26.534   5.668 -14.840  0.00  0.00    -0.289 N 
ATOM     55  CE2 TRP A   6      27.879   5.640 -15.136  0.00  0.00     0.060 A 
ATOM     56  HE1 TRP A   6      25.791   5.879 -15.491  0.00  0.00     0.222 HD
ATOM     57  CD2 TRP A   6      28.512   5.311 -13.897  0.00  0.00    -0.021 A 
ATOM     58  CZ2 TRP A   6      28.595   5.858 -16.323  0.00  0.00     0.010 A 
ATOM     59  CE3 TRP A   6      29.924   5.206 -13.928  0.00  0.00    -0.021 A 
ATOM     60  CZ3 TRP A   6      30.653   5.415 -15.113  0.00  0.00    -0.028 A 
ATOM     61  CH2 TRP A   6      29.994   5.744 -16.309  0.00  0.00    -0.024 A 
ENDBRANCH  51  52
ENDBRANCH  50  51
BRANCH  50  62
ATOM     62  C   TRP A   6      26.105   2.832 -10.872  0.00  0.00     0.205 C 
ATOM     63  O   TRP A   6      25.187   3.522 -10.428  0.00  0.00    -0.394 OA
ATOM     64  N   SER A   7      25.920   1.594 -11.344  0.00  0.00    -0.260 N 
ATOM     65  HN  SER A   7      26.709   1.085 -11.719  0.00  0.00     0.189 HD
BRANCH  64  66
ATOM     66  CA  SER A   7      24.620   0.966 -11.519  0.00  0.00     0.249 C 
BRANCH  66  67
ATOM     67  CB  SER A   7      24.072   1.318 -12.912  0.00  0.00     0.207 C 
BRANCH  67  68
ATOM     68  OG  SER A   7      24.719   0.593 -13.942  0.00  0.00    -0.390 OA
ATOM     69  HG  SER A   7      25.475   1.105 -14.257  0.00  0.00     0.210 HD
ENDBRANCH  67  68
ENDBRANCH  66  67
BRANCH  66  70
ATOM     70  C   SER A   7      24.740  -0.552 -11.330  0.00  0.00     0.259 C 
ATOM     71  O   SER A   7      24.064  -1.363 -11.962  0.00  0.00    -0.368 OA
BRANCH  70  72
ATOM     72  O   OH8 A          25.905  -0.925 -10.721  0.00  0.00    -0.291 OA
ATOM     73  HO  OH8 A          26.688  -0.526 -11.105  0.00  0.00     0.254 HD
ENDBRANCH  70  72
ENDBRANCH  66  70
ENDBRANCH  64  66
ENDBRANCH  50  62
ENDBRANCH  48  50
ENDBRANCH  42  46
ENDBRANCH  40  42
ENDBRANCH   1  38
TORSDOF 24
ENDMDL
MODEL 3
REMARK VINA RESULT:     -10.4      1.920      4.104
REMARK  24 active torsions:
REMARK  status: ('A' for Active; 'I' for Inactive)
REMARK    1  A    between atoms: CA_2  and  C_3 
REMARK       I    between atoms: N_10  and  C_3 
REMARK    2  A    between atoms: CA_11  and  N_10 
REMARK    3  A    between atoms: CA_11  and  C_12 
REMARK       I    between atoms: N_16  and  C_12 
REMARK    4  A    between atoms: CA_17  and  N_16 
REMARK    5  A    between atoms: CA_17  and  CB_20 
REMARK    6  A    between atoms: CA_17  and  C_18 
REMARK       I    between atoms: N_28  and  C_18 
REMARK    7  A    between atoms: CB_20  and  CG_21 
REMARK    8  A    between atoms: CA_29  and  N_28 
REMARK    9  A    between atoms: CA_29  and  CB_32 
REMARK   10  A    between atoms: CA_29  and  C_30 
REMARK       I    between atoms: N_40  and  C_30 
REMARK   11  A    between atoms: CB_32  and  CG_33 
REMARK   12  A    between atoms: CA_41  and  N_40 
REMARK   13  A    between atoms: CA_41  and  CB_44 
REMARK   14  A    between atoms: CA_41  and  C_42 
REMARK       I    between atoms: N_48  and  C_42 
REMARK   15  A    between atoms: CB_44  and  OG_45 
REMARK   16  A    between atoms: CA_49  and  N_48 
REMARK   17  A    between atoms: CA_49  and  CB_52 
REMARK   18  A    between atoms: CA_49  and  C_50 
REMARK       I    between atoms: N_64  and  C_50 
REMARK   19  A    between atoms: CB_52  and  CG_53 
REMARK   20  A    between atoms: CA_65  and  N_64 
REMARK   21  A    between atoms: CA_65  and  CB_68 
REMARK   22  A    between atoms: CA_65  and  C_66 
REMARK   23  A    between atoms: O_72  and  C_66 
REMARK   24  A    between atoms: CB_68  and  OG_69 
ROOT
ATOM      1  CA  HIS A   4      34.189   3.154 -11.592  0.00  0.00     0.225 C 
ENDROOT
BRANCH   1   2
ATOM      2  N   HIS A   4      35.300   2.249 -11.885  0.00  0.00    -0.262 N 
ATOM      3  HN  HIS A   4      35.234   1.741 -12.754  0.00  0.00     0.189 HD
ATOM      4  C   PHE A   3      36.274   1.903 -11.027  0.00  0.00     0.206 C 
ATOM      5  O   PHE A   3      36.454   2.456  -9.945  0.00  0.00    -0.394 OA
BRANCH   4   6
ATOM      6  CA  PHE A   3      37.139   0.704 -11.418  0.00  0.00     0.223 C 
BRANCH   6   7
ATOM      7  N   PHE A   3      36.357  -0.155 -12.301  0.00  0.00    -0.262 N 
ATOM      8  HN  PHE A   3      35.769   0.307 -12.983  0.00  0.00     0.189 HD
ATOM      9  C   ALA A   2      36.261  -1.483 -12.163  0.00  0.00     0.204 C 
ATOM     10  O   ALA A   2      36.911  -2.123 -11.336  0.00  0.00    -0.394 OA
BRANCH   9  11
ATOM     11  CA  ALA A   2      35.298  -2.206 -13.106  0.00  0.00     0.208 C 
ATOM     12  CB  ALA A   2      34.777  -1.254 -14.187  0.00  0.00     0.059 C 
BRANCH  11  13
ATOM     13  N   ALA A   2      34.186  -2.724 -12.324  0.00  0.00    -0.261 N 
ATOM     14  HN  ALA A   2      33.671  -2.035 -11.792  0.00  0.00     0.189 HD
ATOM     15  C   PRO A   1      33.889  -4.024 -12.200  0.00  0.00     0.241 C 
ATOM     16  O   PRO A   1      34.487  -4.921 -12.795  0.00  0.00    -0.390 OA
BRANCH  15  17
ATOM     17  CA  PRO A   1      32.732  -4.395 -11.270  0.00  0.00     0.309 C 
ATOM     18  CB  PRO A   1      31.612  -5.143 -12.013  0.00  0.00     0.098 C 
ATOM     19  CG  PRO A   1      30.561  -4.064 -12.269  0.00  0.00     0.074 C 
ATOM     20  CD  PRO A   1      30.715  -3.205 -11.020  0.00  0.00     0.280 C 
ATOM     21  N   PRO A   1      32.159  -3.146 -10.727  0.00  0.00    -0.414 N 
ATOM     22  H1  PRO A   1      32.354  -3.028  -9.743  0.00  0.00     0.369 HD
ATOM     23  H2  PRO A   1      32.601  -2.400 -11.263  0.00  0.00     0.369 HD
ENDBRANCH  15  17
ENDBRANCH  11  13
ENDBRANCH   9  11
ENDBRANCH   6   7
BRANCH   6  24
ATOM     24  CB  PHE A   3      38.456   1.111 -12.105  0.00  0.00     0.116 C 
BRANCH  24  25
ATOM     25  CG  PHE A   3      39.668   1.319 -11.206  0.00  0.00    -0.039 A 
ATOM     26  CD1 PHE A   3      40.800   1.983 -11.721  0.00  0.00    -0.004 A 
ATOM     27  CE1 PHE A   3      41.951   2.146 -10.930  0.00  0.00    -0.009 A 
ATOM     28  CZ  PHE A   3      41.977   1.654  -9.614  0.00  0.00    -0.013 A 
ATOM     29  CE2 PHE A   3      40.853   0.992  -9.093  0.00  0.00    -0.009 A 
ATOM     30  CD2 PHE A   3      39.706   0.817  -9.886  0.00  0.00    -0.004 A 
ENDBRANCH  24  25
ENDBRANCH   6  24
ENDBRANCH   4   6
ENDBRANCH   1   2
BRANCH   1  31
ATOM     31  CB  HIS A   4      34.359   4.464 -12.388  0.00  0.00     0.141 C 
BRANCH  31  32
ATOM     32  CG  HIS A   4      33.922   5.716 -11.660  0.00  0.00     0.056 A 
ATOM     33  ND1 HIS A   4      33.160   6.733 -12.188  0.00  0.00    -0.262 N 
ATOM     34  CE1 HIS A   4      33.022   7.680 -11.244  0.00  0.00     0.202 A 
ATOM     35  HD1 HIS A   4      32.765   6.759 -13.118  0.00  0.00     0.239 HD
ATOM     36  NE2 HIS A   4      33.676   7.336 -10.123  0.00  0.00    -0.344 NA
ATOM     37  CD2 HIS A   4      34.240   6.084 -10.377  0.00  0.00     0.005 A 
ENDBRANCH  31  32
ENDBRANCH   1  31
BRANCH   1  38
ATOM     38  C   HIS A   4      32.815   2.498 -11.795  0.00  0.00     0.206 C 
ATOM     39  O   HIS A   4      32.179   2.677 -12.834  0.00  0.00    -0.394 OA
ATOM     40  N   SER A   5      32.350   1.759 -10.778  0.00  0.00    -0.261 N 
ATOM     41  HN  SER A   5      32.918   1.651  -9.950  0.00  0.00     0.188 HD
BRANCH  40  42
ATOM     42  CA  SER A   5      31.058   1.082 -10.749  0.00  0.00     0.236 C 
BRANCH  42  43
ATOM     43  CB  SER A   5      30.000   2.082 -10.249  0.00  0.00     0.206 C 
BRANCH  43  44
ATOM     44  OG  SER A   5      28.744   1.459 -10.045  0.00  0.00    -0.390 OA
ATOM     45  HG  SER A   5      28.811   0.875  -9.284  0.00  0.00     0.210 HD
ENDBRANCH  43  44
ENDBRANCH  42  43
BRANCH  42  46
ATOM     46  C   SER A   5      30.722   0.484 -12.127  0.00  0.00     0.206 C 
ATOM     47  O   SER A   5      31.286  -0.530 -12.542  0.00  0.00    -0.394 OA
ATOM     48  N   TRP A   6      29.791   1.133 -12.839  0.00  0.00    -0.263 N 
ATOM     49  HN  TRP A   6      29.364   1.954 -12.425  0.00  0.00     0.188 HD
BRANCH  48  50
ATOM     50  CA  TRP A   6      29.274   0.703 -14.128  0.00  0.00     0.217 C 
BRANCH  50  51
ATOM     51  CB  TRP A   6      28.048  -0.198 -13.920  0.00  0.00     0.084 C 
BRANCH  51  52
ATOM     52  CG  TRP A   6      27.078   0.167 -12.825  0.00  0.00    -0.042 A 
ATOM     53  CD1 TRP A   6      26.980  -0.510 -11.659  0.00  0.00     0.096 A 
ATOM     54  NE1 TRP A   6      26.026   0.063 -10.850  0.00  0.00    -0.289 N 
ATOM     55  CE2 TRP A   6      25.446   1.158 -11.450  0.00  0.00     0.060 A 
ATOM     56  HE1 TRP A   6      25.811  -0.288  -9.928  0.00  0.00     0.222 HD
ATOM     57  CD2 TRP A   6      26.089   1.251 -12.725  0.00  0.00    -0.021 A 
ATOM     58  CZ2 TRP A   6      24.453   2.056 -11.032  0.00  0.00     0.010 A 
ATOM     59  CE3 TRP A   6      25.658   2.308 -13.563  0.00  0.00    -0.021 A 
ATOM     60  CZ3 TRP A   6      24.657   3.210 -13.157  0.00  0.00    -0.028 A 
ATOM     61  CH2 TRP A   6      24.056   3.089 -11.893  0.00  0.00    -0.024 A 
ENDBRANCH  51  52
ENDBRANCH  50  51
BRANCH  50  62
ATOM     62  C   TRP A   6      28.952   1.933 -14.984  0.00  0.00     0.205 C 
ATOM     63  O   TRP A   6      28.252   1.839 -15.993  0.00  0.00    -0.394 OA
ATOM     64  N   SER A   7      29.432   3.100 -14.539  0.00  0.00    -0.260 N 
ATOM     65  HN  SER A   7      29.981   3.117 -13.690  0.00  0.00     0.189 HD
BRANCH  64  66
ATOM     66  CA  SER A   7      29.085   4.398 -15.095  0.00  0.00     0.249 C 
BRANCH  66  67
ATOM     67  CB  SER A   7      27.834   4.935 -14.381  0.00  0.00     0.207 C 
BRANCH  67  68
ATOM     68  OG  SER A   7      28.010   6.260 -13.914  0.00  0.00    -0.390 OA
ATOM     69  HG  SER A   7      28.505   6.761 -14.575  0.00  0.00     0.210 HD
ENDBRANCH  67  68
ENDBRANCH  66  67
BRANCH  66  70
ATOM     70  C   SER A   7      30.270   5.362 -14.956  0.00  0.00     0.259 C 
ATOM     71  O   SER A   7      30.926   5.475 -13.921  0.00  0.00    -0.368 OA
BRANCH  70  72
ATOM     72  O   OH8 A          30.774   5.769 -16.159  0.00  0.00    -0.291 OA
ATOM     73  HO  OH8 A          31.594   5.336 -16.403  0.00  0.00     0.254 HD
ENDBRANCH  70  72
ENDBRANCH  66  70
ENDBRANCH  64  66
ENDBRANCH  50  62
ENDBRANCH  48  50
ENDBRANCH  42  46
ENDBRANCH  40  42
ENDBRANCH   1  38
TORSDOF 24
ENDMDL
MODEL 4
REMARK VINA RESULT:     -10.4      2.377      9.839
REMARK  24 active torsions:
REMARK  status: ('A' for Active; 'I' for Inactive)
REMARK    1  A    between atoms: CA_2  and  C_3 
REMARK       I    between atoms: N_10  and  C_3 
REMARK    2  A    between atoms: CA_11  and  N_10 
REMARK    3  A    between atoms: CA_11  and  C_12 
REMARK       I    between atoms: N_16  and  C_12 
REMARK    4  A    between atoms: CA_17  and  N_16 
REMARK    5  A    between atoms: CA_17  and  CB_20 
REMARK    6  A    between atoms: CA_17  and  C_18 
REMARK       I    between atoms: N_28  and  C_18 
REMARK    7  A    between atoms: CB_20  and  CG_21 
REMARK    8  A    between atoms: CA_29  and  N_28 
REMARK    9  A    between atoms: CA_29  and  CB_32 
REMARK   10  A    between atoms: CA_29  and  C_30 
REMARK       I    between atoms: N_40  and  C_30 
REMARK   11  A    between atoms: CB_32  and  CG_33 
REMARK   12  A    between atoms: CA_41  and  N_40 
REMARK   13  A    between atoms: CA_41  and  CB_44 
REMARK   14  A    between atoms: CA_41  and  C_42 
REMARK       I    between atoms: N_48  and  C_42 
REMARK   15  A    between atoms: CB_44  and  OG_45 
REMARK   16  A    between atoms: CA_49  and  N_48 
REMARK   17  A    between atoms: CA_49  and  CB_52 
REMARK   18  A    between atoms: CA_49  and  C_50 
REMARK       I    between atoms: N_64  and  C_50 
REMARK   19  A    between atoms: CB_52  and  CG_53 
REMARK   20  A    between atoms: CA_65  and  N_64 
REMARK   21  A    between atoms: CA_65  and  CB_68 
REMARK   22  A    between atoms: CA_65  and  C_66 
REMARK   23  A    between atoms: O_72  and  C_66 
REMARK   24  A    between atoms: CB_68  and  OG_69 
ROOT
ATOM      1  CA  HIS A   4      31.491   3.637 -10.598  0.00  0.00     0.225 C 
ENDROOT
BRANCH   1   2
ATOM      2  N   HIS A   4      30.820   2.338 -10.651  0.00  0.00    -0.262 N 
ATOM      3  HN  HIS A   4      31.418   1.545 -10.828  0.00  0.00     0.189 HD
ATOM      4  C   PHE A   3      29.492   2.145 -10.675  0.00  0.00     0.206 C 
ATOM      5  O   PHE A   3      28.672   3.034 -10.465  0.00  0.00    -0.394 OA
BRANCH   4   6
ATOM      6  CA  PHE A   3      29.009   0.745 -11.060  0.00  0.00     0.223 C 
BRANCH   6   7
ATOM      7  N   PHE A   3      27.552   0.770 -11.135  0.00  0.00    -0.262 N 
ATOM      8  HN  PHE A   3      27.111   1.680 -11.131  0.00  0.00     0.189 HD
ATOM      9  C   ALA A   2      26.779  -0.321 -11.060  0.00  0.00     0.204 C 
ATOM     10  O   ALA A   2      27.232  -1.466 -11.024  0.00  0.00    -0.394 OA
BRANCH   9  11
ATOM     11  CA  ALA A   2      25.267  -0.093 -11.034  0.00  0.00     0.208 C 
ATOM     12  CB  ALA A   2      24.518  -1.363 -11.452  0.00  0.00     0.059 C 
BRANCH  11  13
ATOM     13  N   ALA A   2      24.947   0.994 -11.947  0.00  0.00    -0.261 N 
ATOM     14  HN  ALA A   2      24.885   0.738 -12.923  0.00  0.00     0.189 HD
ATOM     15  C   PRO A   1      24.838   2.278 -11.584  0.00  0.00     0.241 C 
ATOM     16  O   PRO A   1      24.928   2.669 -10.420  0.00  0.00    -0.390 OA
BRANCH  15  17
ATOM     17  CA  PRO A   1      24.576   3.301 -12.691  0.00  0.00     0.309 C 
ATOM     18  CB  PRO A   1      25.756   3.406 -13.671  0.00  0.00     0.098 C 
ATOM     19  CG  PRO A   1      26.502   4.658 -13.212  0.00  0.00     0.074 C 
ATOM     20  CD  PRO A   1      25.345   5.527 -12.734  0.00  0.00     0.280 C 
ATOM     21  N   PRO A   1      24.393   4.625 -12.060  0.00  0.00    -0.414 N 
ATOM     22  H1  PRO A   1      23.438   4.951 -12.116  0.00  0.00     0.369 HD
ATOM     23  H2  PRO A   1      24.660   4.490 -11.086  0.00  0.00     0.369 HD
ENDBRANCH  15  17
ENDBRANCH  11  13
ENDBRANCH   9  11
ENDBRANCH   6   7
BRANCH   6  24
ATOM     24  CB  PHE A   3      29.601   0.251 -12.393  0.00  0.00     0.116 C 
BRANCH  24  25
ATOM     25  CG  PHE A   3      29.137   0.961 -13.659  0.00  0.00    -0.039 A 
ATOM     26  CD1 PHE A   3      28.277   0.286 -14.549  0.00  0.00    -0.004 A 
ATOM     27  CE1 PHE A   3      27.872   0.897 -15.749  0.00  0.00    -0.009 A 
ATOM     28  CZ  PHE A   3      28.317   2.192 -16.064  0.00  0.00    -0.013 A 
ATOM     29  CE2 PHE A   3      29.173   2.872 -15.182  0.00  0.00    -0.009 A 
ATOM     30  CD2 PHE A   3      29.589   2.258 -13.988  0.00  0.00    -0.004 A 
ENDBRANCH  24  25
ENDBRANCH   6  24
ENDBRANCH   4   6
ENDBRANCH   1   2
BRANCH   1  31
ATOM     31  CB  HIS A   4      31.790   4.012  -9.132  0.00  0.00     0.141 C 
BRANCH  31  32
ATOM     32  CG  HIS A   4      30.981   5.171  -8.592  0.00  0.00     0.056 A 
ATOM     33  ND1 HIS A   4      29.608   5.270  -8.598  0.00  0.00    -0.262 N 
ATOM     34  CE1 HIS A   4      29.277   6.460  -8.070  0.00  0.00     0.202 A 
ATOM     35  HD1 HIS A   4      28.963   4.567  -8.931  0.00  0.00     0.239 HD
ATOM     36  NE2 HIS A   4      30.375   7.156  -7.733  0.00  0.00    -0.344 NA
ATOM     37  CD2 HIS A   4      31.460   6.337  -8.051  0.00  0.00     0.005 A 
ENDBRANCH  31  32
ENDBRANCH   1  31
BRANCH   1  38
ATOM     38  C   HIS A   4      32.729   3.707 -11.505  0.00  0.00     0.206 C 
ATOM     39  O   HIS A   4      32.851   4.609 -12.335  0.00  0.00    -0.394 OA
ATOM     40  N   SER A   5      33.633   2.729 -11.359  0.00  0.00    -0.261 N 
ATOM     41  HN  SER A   5      33.475   2.015 -10.662  0.00  0.00     0.188 HD
BRANCH  40  42
ATOM     42  CA  SER A   5      34.856   2.586 -12.141  0.00  0.00     0.236 C 
BRANCH  42  43
ATOM     43  CB  SER A   5      35.984   3.340 -11.416  0.00  0.00     0.206 C 
BRANCH  43  44
ATOM     44  OG  SER A   5      35.884   3.209 -10.009  0.00  0.00    -0.390 OA
ATOM     45  HG  SER A   5      35.040   3.571  -9.725  0.00  0.00     0.210 HD
ENDBRANCH  43  44
ENDBRANCH  42  43
BRANCH  42  46
ATOM     46  C   SER A   5      35.180   1.099 -12.383  0.00  0.00     0.206 C 
ATOM     47  O   SER A   5      35.194   0.623 -13.519  0.00  0.00    -0.394 OA
ATOM     48  N   TRP A   6      35.437   0.368 -11.290  0.00  0.00    -0.263 N 
ATOM     49  HN  TRP A   6      35.418   0.836 -10.392  0.00  0.00     0.188 HD
BRANCH  48  50
ATOM     50  CA  TRP A   6      35.835  -1.030 -11.295  0.00  0.00     0.217 C 
BRANCH  50  51
ATOM     51  CB  TRP A   6      35.078  -1.780 -12.402  0.00  0.00     0.084 C 
BRANCH  51  52
ATOM     52  CG  TRP A   6      34.118  -2.868 -11.993  0.00  0.00    -0.042 A 
ATOM     53  CD1 TRP A   6      34.254  -4.161 -12.362  0.00  0.00     0.096 A 
ATOM     54  NE1 TRP A   6      33.243  -4.922 -11.824  0.00  0.00    -0.289 N 
ATOM     55  CE2 TRP A   6      32.384  -4.159 -11.065  0.00  0.00     0.060 A 
ATOM     56  HE1 TRP A   6      33.174  -5.920 -11.970  0.00  0.00     0.222 HD
ATOM     57  CD2 TRP A   6      32.907  -2.831 -11.158  0.00  0.00    -0.021 A 
ATOM     58  CZ2 TRP A   6      31.233  -4.473 -10.328  0.00  0.00     0.010 A 
ATOM     59  CE3 TRP A   6      32.188  -1.829 -10.464  0.00  0.00    -0.021 A 
ATOM     60  CZ3 TRP A   6      31.028  -2.131  -9.727  0.00  0.00    -0.028 A 
ATOM     61  CH2 TRP A   6      30.550  -3.450  -9.654  0.00  0.00    -0.024 A 
ENDBRANCH  51  52
ENDBRANCH  50  51
BRANCH  50  62
ATOM     62  C   TRP A   6      37.355  -1.128 -11.463  0.00  0.00     0.205 C 
ATOM     63  O   TRP A   6      37.973  -2.122 -11.082  0.00  0.00    -0.394 OA
ATOM     64  N   SER A   7      37.943  -0.101 -12.086  0.00  0.00    -0.260 N 
ATOM     65  HN  SER A   7      37.379   0.678 -12.397  0.00  0.00     0.189 HD
BRANCH  64  66
ATOM     66  CA  SER A   7      39.335  -0.083 -12.508  0.00  0.00     0.249 C 
BRANCH  66  67
ATOM     67  CB  SER A   7      39.408  -0.380 -14.015  0.00  0.00     0.207 C 
BRANCH  67  68
ATOM     68  OG  SER A   7      39.474   0.801 -14.793  0.00  0.00    -0.390 OA
ATOM     69  HG  SER A   7      38.701   1.346 -14.600  0.00  0.00     0.210 HD
ENDBRANCH  67  68
ENDBRANCH  66  67
BRANCH  66  70
ATOM     70  C   SER A   7      39.969   1.273 -12.171  0.00  0.00     0.259 C 
ATOM     71  O   SER A   7      39.504   2.040 -11.329  0.00  0.00    -0.368 OA
BRANCH  70  72
ATOM     72  O   OH8 A          41.270   1.370 -12.575  0.00  0.00    -0.291 OA
ATOM     73  HO  OH8 A          41.867   1.680 -11.890  0.00  0.00     0.254 HD
ENDBRANCH  70  72
ENDBRANCH  66  70
ENDBRANCH  64  66
ENDBRANCH  50  62
ENDBRANCH  48  50
ENDBRANCH  42  46
ENDBRANCH  40  42
ENDBRANCH   1  38
TORSDOF 24
ENDMDL
MODEL 5
REMARK VINA RESULT:     -10.3      2.205      8.868
REMARK  24 active torsions:
REMARK  status: ('A' for Active; 'I' for Inactive)
REMARK    1  A    between atoms: CA_2  and  C_3 
REMARK       I    between atoms: N_10  and  C_3 
REMARK    2  A    between atoms: CA_11  and  N_10 
REMARK    3  A    between atoms: CA_11  and  C_12 
REMARK       I    between atoms: N_16  and  C_12 
REMARK    4  A    between atoms: CA_17  and  N_16 
REMARK    5  A    between atoms: CA_17  and  CB_20 
REMARK    6  A    between atoms: CA_17  and  C_18 
REMARK       I    between atoms: N_28  and  C_18 
REMARK    7  A    between atoms: CB_20  and  CG_21 
REMARK    8  A    between atoms: CA_29  and  N_28 
REMARK    9  A    between atoms: CA_29  and  CB_32 
REMARK   10  A    between atoms: CA_29  and  C_30 
REMARK       I    between atoms: N_40  and  C_30 
REMARK   11  A    between atoms: CB_32  and  CG_33 
REMARK   12  A    between atoms: CA_41  and  N_40 
REMARK   13  A    between atoms: CA_41  and  CB_44 
REMARK   14  A    between atoms: CA_41  and  C_42 
REMARK       I    between atoms: N_48  and  C_42 
REMARK   15  A    between atoms: CB_44  and  OG_45 
REMARK   16  A    between atoms: CA_49  and  N_48 
REMARK   17  A    between atoms: CA_49  and  CB_52 
REMARK   18  A    between atoms: CA_49  and  C_50 
REMARK       I    between atoms: N_64  and  C_50 
REMARK   19  A    between atoms: CB_52  and  CG_53 
REMARK   20  A    between atoms: CA_65  and  N_64 
REMARK   21  A    between atoms: CA_65  and  CB_68 
REMARK   22  A    between atoms: CA_65  and  C_66 
REMARK   23  A    between atoms: O_72  and  C_66 
REMARK   24  A    between atoms: CB_68  and  OG_69 
ROOT
ATOM      1  CA  HIS A   4      33.693   5.784 -11.019  0.00  0.00     0.225 C 
ENDROOT
BRANCH   1   2
ATOM      2  N   HIS A   4      32.487   4.980 -11.216  0.00  0.00    -0.262 N 
ATOM      3  HN  HIS A   4      32.563   4.007 -10.960  0.00  0.00     0.189 HD
ATOM      4  C   PHE A   3      31.382   5.375 -11.869  0.00  0.00     0.206 C 
ATOM      5  O   PHE A   3      31.178   6.533 -12.221  0.00  0.00    -0.394 OA
BRANCH   4   6
ATOM      6  CA  PHE A   3      30.379   4.282 -12.244  0.00  0.00     0.223 C 
BRANCH   6   7
ATOM      7  N   PHE A   3      29.033   4.814 -12.055  0.00  0.00    -0.262 N 
ATOM      8  HN  PHE A   3      28.658   5.380 -12.804  0.00  0.00     0.189 HD
ATOM      9  C   ALA A   2      28.344   4.720 -10.910  0.00  0.00     0.204 C 
ATOM     10  O   ALA A   2      28.742   4.082  -9.936  0.00  0.00    -0.394 OA
BRANCH   9  11
ATOM     11  CA  ALA A   2      26.997   5.443 -10.856  0.00  0.00     0.208 C 
ATOM     12  CB  ALA A   2      26.846   6.214  -9.542  0.00  0.00     0.059 C 
BRANCH  11  13
ATOM     13  N   ALA A   2      25.936   4.453 -10.975  0.00  0.00    -0.261 N 
ATOM     14  HN  ALA A   2      25.489   4.190 -10.107  0.00  0.00     0.189 HD
ATOM     15  C   PRO A   1      25.609   3.828 -12.114  0.00  0.00     0.241 C 
ATOM     16  O   PRO A   1      26.128   4.077 -13.202  0.00  0.00    -0.390 OA
BRANCH  15  17
ATOM     17  CA  PRO A   1      24.521   2.756 -12.039  0.00  0.00     0.309 C 
ATOM     18  CB  PRO A   1      24.858   1.662 -11.012  0.00  0.00     0.098 C 
ATOM     19  CG  PRO A   1      25.399   0.516 -11.865  0.00  0.00     0.074 C 
ATOM     20  CD  PRO A   1      24.554   0.666 -13.125  0.00  0.00     0.280 C 
ATOM     21  N   PRO A   1      24.415   2.114 -13.366  0.00  0.00    -0.414 N 
ATOM     22  H1  PRO A   1      23.556   2.352 -13.841  0.00  0.00     0.369 HD
ATOM     23  H2  PRO A   1      25.215   2.466 -13.891  0.00  0.00     0.369 HD
ENDBRANCH  15  17
ENDBRANCH  11  13
ENDBRANCH   9  11
ENDBRANCH   6   7
BRANCH   6  24
ATOM     24  CB  PHE A   3      30.552   3.777 -13.688  0.00  0.00     0.116 C 
BRANCH  24  25
ATOM     25  CG  PHE A   3      29.692   2.594 -14.114  0.00  0.00    -0.039 A 
ATOM     26  CD1 PHE A   3      29.774   1.388 -13.387  0.00  0.00    -0.004 A 
ATOM     27  CE1 PHE A   3      29.030   0.264 -13.786  0.00  0.00    -0.009 A 
ATOM     28  CZ  PHE A   3      28.190   0.339 -14.910  0.00  0.00    -0.013 A 
ATOM     29  CE2 PHE A   3      28.102   1.536 -15.638  0.00  0.00    -0.009 A 
ATOM     30  CD2 PHE A   3      28.854   2.657 -15.249  0.00  0.00    -0.004 A 
ENDBRANCH  24  25
ENDBRANCH   6  24
ENDBRANCH   4   6
ENDBRANCH   1   2
BRANCH   1  31
ATOM     31  CB  HIS A   4      33.787   6.232  -9.546  0.00  0.00     0.141 C 
BRANCH  31  32
ATOM     32  CG  HIS A   4      33.335   7.651  -9.281  0.00  0.00     0.056 A 
ATOM     33  ND1 HIS A   4      32.737   8.492 -10.192  0.00  0.00    -0.262 N 
ATOM     34  CE1 HIS A   4      32.526   9.674  -9.588  0.00  0.00     0.202 A 
ATOM     35  HD1 HIS A   4      32.490   8.259 -11.144  0.00  0.00     0.239 HD
ATOM     36  NE2 HIS A   4      32.976   9.652  -8.324  0.00  0.00    -0.344 NA
ATOM     37  CD2 HIS A   4      33.480   8.365  -8.119  0.00  0.00     0.005 A 
ENDBRANCH  31  32
ENDBRANCH   1  31
BRANCH   1  38
ATOM     38  C   HIS A   4      34.965   5.084 -11.520  0.00  0.00     0.206 C 
ATOM     39  O   HIS A   4      35.947   5.740 -11.873  0.00  0.00    -0.394 OA
ATOM     40  N   SER A   5      34.929   3.746 -11.577  0.00  0.00    -0.261 N 
ATOM     41  HN  SER A   5      34.093   3.265 -11.275  0.00  0.00     0.188 HD
BRANCH  40  42
ATOM     42  CA  SER A   5      36.010   2.891 -12.056  0.00  0.00     0.236 C 
BRANCH  42  43
ATOM     43  CB  SER A   5      36.904   2.526 -10.858  0.00  0.00     0.206 C 
BRANCH  43  44
ATOM     44  OG  SER A   5      36.160   2.442  -9.654  0.00  0.00    -0.390 OA
ATOM     45  HG  SER A   5      36.301   1.573  -9.267  0.00  0.00     0.210 HD
ENDBRANCH  43  44
ENDBRANCH  42  43
BRANCH  42  46
ATOM     46  C   SER A   5      35.449   1.659 -12.790  0.00  0.00     0.206 C 
ATOM     47  O   SER A   5      35.266   1.667 -14.009  0.00  0.00    -0.394 OA
ATOM     48  N   TRP A   6      35.171   0.595 -12.026  0.00  0.00    -0.263 N 
ATOM     49  HN  TRP A   6      35.360   0.662 -11.033  0.00  0.00     0.188 HD
BRANCH  48  50
ATOM     50  CA  TRP A   6      34.704  -0.690 -12.521  0.00  0.00     0.217 C 
BRANCH  50  51
ATOM     51  CB  TRP A   6      35.855  -1.707 -12.491  0.00  0.00     0.084 C 
BRANCH  51  52
ATOM     52  CG  TRP A   6      37.204  -1.266 -13.000  0.00  0.00    -0.042 A 
ATOM     53  CD1 TRP A   6      37.490  -1.104 -14.310  0.00  0.00     0.096 A 
ATOM     54  NE1 TRP A   6      38.788  -0.678 -14.469  0.00  0.00    -0.289 N 
ATOM     55  CE2 TRP A   6      39.425  -0.535 -13.256  0.00  0.00     0.060 A 
ATOM     56  HE1 TRP A   6      39.192  -0.484 -15.374  0.00  0.00     0.222 HD
ATOM     57  CD2 TRP A   6      38.442  -0.914 -12.288  0.00  0.00    -0.021 A 
ATOM     58  CZ2 TRP A   6      40.722  -0.129 -12.906  0.00  0.00     0.010 A 
ATOM     59  CE3 TRP A   6      38.853  -0.867 -10.934  0.00  0.00    -0.021 A 
ATOM     60  CZ3 TRP A   6      40.153  -0.468 -10.571  0.00  0.00    -0.028 A 
ATOM     61  CH2 TRP A   6      41.087  -0.097 -11.552  0.00  0.00    -0.024 A 
ENDBRANCH  51  52
ENDBRANCH  50  51
BRANCH  50  62
ATOM     62  C   TRP A   6      33.502  -1.150 -11.689  0.00  0.00     0.205 C 
ATOM     63  O   TRP A   6      33.223  -0.604 -10.621  0.00  0.00    -0.394 OA
ATOM     64  N   SER A   7      32.763  -2.131 -12.218  0.00  0.00    -0.260 N 
ATOM     65  HN  SER A   7      33.029  -2.524 -13.111  0.00  0.00     0.189 HD
BRANCH  64  66
ATOM     66  CA  SER A   7      31.486  -2.578 -11.685  0.00  0.00     0.249 C 
BRANCH  66  67
ATOM     67  CB  SER A   7      30.576  -3.007 -12.847  0.00  0.00     0.207 C 
BRANCH  67  68
ATOM     68  OG  SER A   7      29.916  -4.233 -12.589  0.00  0.00    -0.390 OA
ATOM     69  HG  SER A   7      29.673  -4.266 -11.655  0.00  0.00     0.210 HD
ENDBRANCH  67  68
ENDBRANCH  66  67
BRANCH  66  70
ATOM     70  C   SER A   7      31.705  -3.725 -10.690  0.00  0.00     0.259 C 
ATOM     71  O   SER A   7      30.920  -3.982  -9.778  0.00  0.00    -0.368 OA
BRANCH  70  72
ATOM     72  O   OH8 A          32.600  -4.656 -11.135  0.00  0.00    -0.291 OA
ATOM     73  HO  OH8 A          32.457  -5.535 -10.776  0.00  0.00     0.254 HD
ENDBRANCH  70  72
ENDBRANCH  66  70
ENDBRANCH  64  66
ENDBRANCH  50  62
ENDBRANCH  48  50
ENDBRANCH  42  46
ENDBRANCH  40  42
ENDBRANCH   1  38
TORSDOF 24
ENDMDL
MODEL 6
REMARK VINA RESULT:     -10.2      1.751      3.712
REMARK  24 active torsions:
REMARK  status: ('A' for Active; 'I' for Inactive)
REMARK    1  A    between atoms: CA_2  and  C_3 
REMARK       I    between atoms: N_10  and  C_3 
REMARK    2  A    between atoms: CA_11  and  N_10 
REMARK    3  A    between atoms: CA_11  and  C_12 
REMARK       I    between atoms: N_16  and  C_12 
REMARK    4  A    between atoms: CA_17  and  N_16 
REMARK    5  A    between atoms: CA_17  and  CB_20 
REMARK    6  A    between atoms: CA_17  and  C_18 
REMARK       I    between atoms: N_28  and  C_18 
REMARK    7  A    between atoms: CB_20  and  CG_21 
REMARK    8  A    between atoms: CA_29  and  N_28 
REMARK    9  A    between atoms: CA_29  and  CB_32 
REMARK   10  A    between atoms: CA_29  and  C_30 
REMARK       I    between atoms: N_40  and  C_30 
REMARK   11  A    between atoms: CB_32  and  CG_33 
REMARK   12  A    between atoms: CA_41  and  N_40 
REMARK   13  A    between atoms: CA_41  and  CB_44 
REMARK   14  A    between atoms: CA_41  and  C_42 
REMARK       I    between atoms: N_48  and  C_42 
REMARK   15  A    between atoms: CB_44  and  OG_45 
REMARK   16  A    between atoms: CA_49  and  N_48 
REMARK   17  A    between atoms: CA_49  and  CB_52 
REMARK   18  A    between atoms: CA_49  and  C_50 
REMARK       I    between atoms: N_64  and  C_50 
REMARK   19  A    between atoms: CB_52  and  CG_53 
REMARK   20  A    between atoms: CA_65  and  N_64 
REMARK   21  A    between atoms: CA_65  and  CB_68 
REMARK   22  A    between atoms: CA_65  and  C_66 
REMARK   23  A    between atoms: O_72  and  C_66 
REMARK   24  A    between atoms: CB_68  and  OG_69 
ROOT
ATOM      1  CA  HIS A   4      35.084   3.381 -11.220  0.00  0.00     0.225 C 
ENDROOT
BRANCH   1   2
ATOM      2  N   HIS A   4      36.162   2.422 -11.457  0.00  0.00    -0.262 N 
ATOM      3  HN  HIS A   4      36.317   2.167 -12.420  0.00  0.00     0.189 HD
ATOM      4  C   PHE A   3      36.814   1.729 -10.509  0.00  0.00     0.206 C 
ATOM      5  O   PHE A   3      36.709   1.958  -9.307  0.00  0.00    -0.394 OA
BRANCH   4   6
ATOM      6  CA  PHE A   3      37.667   0.551 -10.984  0.00  0.00     0.223 C 
BRANCH   6   7
ATOM      7  N   PHE A   3      36.878  -0.229 -11.933  0.00  0.00    -0.262 N 
ATOM      8  HN  PHE A   3      36.352   0.291 -12.623  0.00  0.00     0.189 HD
ATOM      9  C   ALA A   2      36.700  -1.553 -11.849  0.00  0.00     0.204 C 
ATOM     10  O   ALA A   2      37.272  -2.258 -11.017  0.00  0.00    -0.394 OA
BRANCH   9  11
ATOM     11  CA  ALA A   2      35.743  -2.184 -12.861  0.00  0.00     0.208 C 
ATOM     12  CB  ALA A   2      35.301  -1.156 -13.907  0.00  0.00     0.059 C 
BRANCH  11  13
ATOM     13  N   ALA A   2      34.582  -2.694 -12.145  0.00  0.00    -0.261 N 
ATOM     14  HN  ALA A   2      34.135  -2.036 -11.521  0.00  0.00     0.189 HD
ATOM     15  C   PRO A   1      34.160  -3.963 -12.195  0.00  0.00     0.241 C 
ATOM     16  O   PRO A   1      34.671  -4.825 -12.911  0.00  0.00    -0.390 OA
BRANCH  15  17
ATOM     17  CA  PRO A   1      32.969  -4.343 -11.314  0.00  0.00     0.309 C 
ATOM     18  CB  PRO A   1      31.895  -5.116 -12.097  0.00  0.00     0.098 C 
ATOM     19  CG  PRO A   1      30.839  -4.056 -12.411  0.00  0.00     0.074 C 
ATOM     20  CD  PRO A   1      30.925  -3.182 -11.166  0.00  0.00     0.280 C 
ATOM     21  N   PRO A   1      32.354  -3.098 -10.810  0.00  0.00    -0.414 N 
ATOM     22  H1  PRO A   1      32.503  -2.967  -9.820  0.00  0.00     0.369 HD
ATOM     23  H2  PRO A   1      32.807  -2.350 -11.334  0.00  0.00     0.369 HD
ENDBRANCH  15  17
ENDBRANCH  11  13
ENDBRANCH   9  11
ENDBRANCH   6   7
BRANCH   6  24
ATOM     24  CB  PHE A   3      38.993   0.991 -11.631  0.00  0.00     0.116 C 
BRANCH  24  25
ATOM     25  CG  PHE A   3      39.726  -0.043 -12.475  0.00  0.00    -0.039 A 
ATOM     26  CD1 PHE A   3      39.573  -0.020 -13.877  0.00  0.00    -0.004 A 
ATOM     27  CE1 PHE A   3      40.199  -0.991 -14.677  0.00  0.00    -0.009 A 
ATOM     28  CZ  PHE A   3      40.990  -1.990 -14.084  0.00  0.00    -0.013 A 
ATOM     29  CE2 PHE A   3      41.147  -2.020 -12.689  0.00  0.00    -0.009 A 
ATOM     30  CD2 PHE A   3      40.513  -1.057 -11.886  0.00  0.00    -0.004 A 
ENDBRANCH  24  25
ENDBRANCH   6  24
ENDBRANCH   4   6
ENDBRANCH   1   2
BRANCH   1  31
ATOM     31  CB  HIS A   4      35.508   4.778 -11.719  0.00  0.00     0.141 C 
BRANCH  31  32
ATOM     32  CG  HIS A   4      34.636   5.918 -11.241  0.00  0.00     0.056 A 
ATOM     33  ND1 HIS A   4      34.254   7.010 -11.987  0.00  0.00    -0.262 N 
ATOM     34  CE1 HIS A   4      33.521   7.814 -11.199  0.00  0.00     0.202 A 
ATOM     35  HD1 HIS A   4      34.476   7.173 -12.960  0.00  0.00     0.239 HD
ATOM     36  NE2 HIS A   4      33.420   7.307  -9.960  0.00  0.00    -0.344 NA
ATOM     37  CD2 HIS A   4      34.116   6.096  -9.984  0.00  0.00     0.005 A 
ENDBRANCH  31  32
ENDBRANCH   1  31
BRANCH   1  38
ATOM     38  C   HIS A   4      33.737   2.918 -11.795  0.00  0.00     0.206 C 
ATOM     39  O   HIS A   4      33.675   2.387 -12.905  0.00  0.00    -0.394 OA
ATOM     40  N   SER A   5      32.653   3.150 -11.041  0.00  0.00    -0.261 N 
ATOM     41  HN  SER A   5      32.769   3.592 -10.140  0.00  0.00     0.188 HD
BRANCH  40  42
ATOM     42  CA  SER A   5      31.281   2.826 -11.412  0.00  0.00     0.236 C 
BRANCH  42  43
ATOM     43  CB  SER A   5      30.398   2.953 -10.159  0.00  0.00     0.206 C 
BRANCH  43  44
ATOM     44  OG  SER A   5      29.566   4.100 -10.216  0.00  0.00    -0.390 OA
ATOM     45  HG  SER A   5      28.670   3.819 -10.418  0.00  0.00     0.210 HD
ENDBRANCH  43  44
ENDBRANCH  42  43
BRANCH  42  46
ATOM     46  C   SER A   5      30.806   3.710 -12.580  0.00  0.00     0.206 C 
ATOM     47  O   SER A   5      31.246   4.850 -12.742  0.00  0.00    -0.394 OA
ATOM     48  N   TRP A   6      29.892   3.168 -13.395  0.00  0.00    -0.263 N 
ATOM     49  HN  TRP A   6      29.588   2.221 -13.203  0.00  0.00     0.188 HD
BRANCH  48  50
ATOM     50  CA  TRP A   6      29.363   3.797 -14.594  0.00  0.00     0.217 C 
BRANCH  50  51
ATOM     51  CB  TRP A   6      28.687   2.740 -15.480  0.00  0.00     0.084 C 
BRANCH  51  52
ATOM     52  CG  TRP A   6      27.939   1.620 -14.801  0.00  0.00    -0.042 A 
ATOM     53  CD1 TRP A   6      28.395   0.349 -14.738  0.00  0.00     0.096 A 
ATOM     54  NE1 TRP A   6      27.511  -0.443 -14.043  0.00  0.00    -0.289 N 
ATOM     55  CE2 TRP A   6      26.421   0.276 -13.609  0.00  0.00     0.060 A 
ATOM     56  HE1 TRP A   6      27.677  -1.425 -13.872  0.00  0.00     0.222 HD
ATOM     57  CD2 TRP A   6      26.654   1.605 -14.086  0.00  0.00    -0.021 A 
ATOM     58  CZ2 TRP A   6      25.280  -0.078 -12.872  0.00  0.00     0.010 A 
ATOM     59  CE3 TRP A   6      25.655   2.560 -13.780  0.00  0.00    -0.021 A 
ATOM     60  CZ3 TRP A   6      24.504   2.215 -13.048  0.00  0.00    -0.028 A 
ATOM     61  CH2 TRP A   6      24.315   0.900 -12.591  0.00  0.00    -0.024 A 
ENDBRANCH  51  52
ENDBRANCH  50  51
BRANCH  50  62
ATOM     62  C   TRP A   6      28.401   4.922 -14.197  0.00  0.00     0.205 C 
ATOM     63  O   TRP A   6      27.752   5.532 -15.048  0.00  0.00    -0.394 OA
ATOM     64  N   SER A   7      28.278   5.154 -12.886  0.00  0.00    -0.260 N 
ATOM     65  HN  SER A   7      28.820   4.604 -12.234  0.00  0.00     0.189 HD
BRANCH  64  66
ATOM     66  CA  SER A   7      27.288   6.041 -12.296  0.00  0.00     0.249 C 
BRANCH  66  67
ATOM     67  CB  SER A   7      26.398   5.234 -11.336  0.00  0.00     0.207 C 
BRANCH  67  68
ATOM     68  OG  SER A   7      26.949   3.967 -11.029  0.00  0.00    -0.390 OA
ATOM     69  HG  SER A   7      27.395   4.018 -10.174  0.00  0.00     0.210 HD
ENDBRANCH  67  68
ENDBRANCH  66  67
BRANCH  66  70
ATOM     70  C   SER A   7      27.985   7.202 -11.575  0.00  0.00     0.259 C 
ATOM     71  O   SER A   7      27.444   7.864 -10.689  0.00  0.00    -0.368 OA
BRANCH  70  72
ATOM     72  O   OH8 A          29.344   7.175 -11.707  0.00  0.00    -0.291 OA
ATOM     73  HO  OH8 A          29.702   7.928 -12.182  0.00  0.00     0.254 HD
ENDBRANCH  70  72
ENDBRANCH  66  70
ENDBRANCH  64  66
ENDBRANCH  50  62
ENDBRANCH  48  50
ENDBRANCH  42  46
ENDBRANCH  40  42
ENDBRANCH   1  38
TORSDOF 24
ENDMDL
MODEL 7
REMARK VINA RESULT:     -10.2      2.050      6.090
REMARK  24 active torsions:
REMARK  status: ('A' for Active; 'I' for Inactive)
REMARK    1  A    between atoms: CA_2  and  C_3 
REMARK       I    between atoms: N_10  and  C_3 
REMARK    2  A    between atoms: CA_11  and  N_10 
REMARK    3  A    between atoms: CA_11  and  C_12 
REMARK       I    between atoms: N_16  and  C_12 
REMARK    4  A    between atoms: CA_17  and  N_16 
REMARK    5  A    between atoms: CA_17  and  CB_20 
REMARK    6  A    between atoms: CA_17  and  C_18 
REMARK       I    between atoms: N_28  and  C_18 
REMARK    7  A    between atoms: CB_20  and  CG_21 
REMARK    8  A    between atoms: CA_29  and  N_28 
REMARK    9  A    between atoms: CA_29  and  CB_32 
REMARK   10  A    between atoms: CA_29  and  C_30 
REMARK       I    between atoms: N_40  and  C_30 
REMARK   11  A    between atoms: CB_32  and  CG_33 
REMARK   12  A    between atoms: CA_41  and  N_40 
REMARK   13  A    between atoms: CA_41  and  CB_44 
REMARK   14  A    between atoms: CA_41  and  C_42 
REMARK       I    between atoms: N_48  and  C_42 
REMARK   15  A    between atoms: CB_44  and  OG_45 
REMARK   16  A    between atoms: CA_49  and  N_48 
REMARK   17  A    between atoms: CA_49  and  CB_52 
REMARK   18  A    between atoms: CA_49  and  C_50 
REMARK       I    between atoms: N_64  and  C_50 
REMARK   19  A    between atoms: CB_52  and  CG_53 
REMARK   20  A    between atoms: CA_65  and  N_64 
REMARK   21  A    between atoms: CA_65  and  CB_68 
REMARK   22  A    between atoms: CA_65  and  C_66 
REMARK   23  A    between atoms: O_72  and  C_66 
REMARK   24  A    between atoms: CB_68  and  OG_69 
ROOT
ATOM      1  CA  HIS A   4      32.275   5.011 -11.340  0.00  0.00     0.225 C 
ENDROOT
BRANCH   1   2
ATOM      2  N   HIS A   4      33.196   4.057 -11.957  0.00  0.00    -0.262 N 
ATOM      3  HN  HIS A   4      32.947   3.745 -12.883  0.00  0.00     0.189 HD
ATOM      4  C   PHE A   3      34.209   3.434 -11.333  0.00  0.00     0.206 C 
ATOM      5  O   PHE A   3      34.604   3.734 -10.210  0.00  0.00    -0.394 OA
BRANCH   4   6
ATOM      6  CA  PHE A   3      34.834   2.242 -12.062  0.00  0.00     0.223 C 
BRANCH   6   7
ATOM      7  N   PHE A   3      35.711   1.545 -11.127  0.00  0.00    -0.262 N 
ATOM      8  HN  PHE A   3      35.298   1.239 -10.256  0.00  0.00     0.189 HD
ATOM      9  C   ALA A   2      37.034   1.423 -11.290  0.00  0.00     0.204 C 
ATOM     10  O   ALA A   2      37.626   1.800 -12.302  0.00  0.00    -0.394 OA
BRANCH   9  11
ATOM     11  CA  ALA A   2      37.811   0.765 -10.148  0.00  0.00     0.208 C 
ATOM     12  CB  ALA A   2      38.008   1.746  -8.988  0.00  0.00     0.059 C 
BRANCH  11  13
ATOM     13  N   ALA A   2      39.105   0.333 -10.657  0.00  0.00    -0.261 N 
ATOM     14  HN  ALA A   2      39.817   1.051 -10.698  0.00  0.00     0.189 HD
ATOM     15  C   PRO A   1      39.356  -0.887 -11.147  0.00  0.00     0.241 C 
ATOM     16  O   PRO A   1      38.531  -1.802 -11.156  0.00  0.00    -0.390 OA
BRANCH  15  17
ATOM     17  CA  PRO A   1      40.752  -1.143 -11.716  0.00  0.00     0.309 C 
ATOM     18  CB  PRO A   1      41.235   0.014 -12.606  0.00  0.00     0.098 C 
ATOM     19  CG  PRO A   1      40.978  -0.487 -14.026  0.00  0.00     0.074 C 
ATOM     20  CD  PRO A   1      41.247  -1.978 -13.862  0.00  0.00     0.280 C 
ATOM     21  N   PRO A   1      40.694  -2.362 -12.549  0.00  0.00    -0.414 N 
ATOM     22  H1  PRO A   1      41.184  -3.139 -12.130  0.00  0.00     0.369 HD
ATOM     23  H2  PRO A   1      39.701  -2.576 -12.630  0.00  0.00     0.369 HD
ENDBRANCH  15  17
ENDBRANCH  11  13
ENDBRANCH   9  11
ENDBRANCH   6   7
BRANCH   6  24
ATOM     24  CB  PHE A   3      33.785   1.269 -12.632  0.00  0.00     0.116 C 
BRANCH  24  25
ATOM     25  CG  PHE A   3      34.135  -0.213 -12.610  0.00  0.00    -0.039 A 
ATOM     26  CD1 PHE A   3      33.479  -1.061 -11.695  0.00  0.00    -0.004 A 
ATOM     27  CE1 PHE A   3      33.815  -2.424 -11.619  0.00  0.00    -0.009 A 
ATOM     28  CZ  PHE A   3      34.806  -2.953 -12.464  0.00  0.00    -0.013 A 
ATOM     29  CE2 PHE A   3      35.464  -2.115 -13.379  0.00  0.00    -0.009 A 
ATOM     30  CD2 PHE A   3      35.138  -0.750 -13.448  0.00  0.00    -0.004 A 
ENDBRANCH  24  25
ENDBRANCH   6  24
ENDBRANCH   4   6
ENDBRANCH   1   2
BRANCH   1  31
ATOM     31  CB  HIS A   4      32.739   6.452 -11.638  0.00  0.00     0.141 C 
BRANCH  31  32
ATOM     32  CG  HIS A   4      33.010   7.301 -10.416  0.00  0.00     0.056 A 
ATOM     33  ND1 HIS A   4      32.927   8.674 -10.352  0.00  0.00    -0.262 N 
ATOM     34  CE1 HIS A   4      33.281   9.052  -9.112  0.00  0.00     0.202 A 
ATOM     35  HD1 HIS A   4      32.640   9.288 -11.101  0.00  0.00     0.239 HD
ATOM     36  NE2 HIS A   4      33.611   7.988  -8.363  0.00  0.00    -0.344 NA
ATOM     37  CD2 HIS A   4      33.429   6.872  -9.182  0.00  0.00     0.005 A 
ENDBRANCH  31  32
ENDBRANCH   1  31
BRANCH   1  38
ATOM     38  C   HIS A   4      30.809   4.757 -11.720  0.00  0.00     0.206 C 
ATOM     39  O   HIS A   4      29.990   4.407 -10.869  0.00  0.00    -0.394 OA
ATOM     40  N   SER A   5      30.492   4.909 -13.013  0.00  0.00    -0.261 N 
ATOM     41  HN  SER A   5      31.209   5.197 -13.663  0.00  0.00     0.188 HD
BRANCH  40  42
ATOM     42  CA  SER A   5      29.172   4.683 -13.591  0.00  0.00     0.236 C 
BRANCH  42  43
ATOM     43  CB  SER A   5      28.943   5.728 -14.697  0.00  0.00     0.206 C 
BRANCH  43  44
ATOM     44  OG  SER A   5      27.800   5.423 -15.479  0.00  0.00    -0.390 OA
ATOM     45  HG  SER A   5      27.245   6.206 -15.528  0.00  0.00     0.210 HD
ENDBRANCH  43  44
ENDBRANCH  42  43
BRANCH  42  46
ATOM     46  C   SER A   5      29.034   3.233 -14.089  0.00  0.00     0.206 C 
ATOM     47  O   SER A   5      29.181   2.946 -15.279  0.00  0.00    -0.394 OA
ATOM     48  N   TRP A   6      28.743   2.316 -13.158  0.00  0.00    -0.263 N 
ATOM     49  HN  TRP A   6      28.649   2.628 -12.198  0.00  0.00     0.188 HD
BRANCH  48  50
ATOM     50  CA  TRP A   6      28.640   0.885 -13.396  0.00  0.00     0.217 C 
BRANCH  50  51
ATOM     51  CB  TRP A   6      29.151   0.117 -12.169  0.00  0.00     0.084 C 
BRANCH  51  52
ATOM     52  CG  TRP A   6      29.568  -1.321 -12.355  0.00  0.00    -0.042 A 
ATOM     53  CD1 TRP A   6      29.534  -1.959 -13.545  0.00  0.00     0.096 A 
ATOM     54  NE1 TRP A   6      29.990  -3.250 -13.410  0.00  0.00    -0.289 N 
ATOM     55  CE2 TRP A   6      30.353  -3.525 -12.111  0.00  0.00     0.060 A 
ATOM     56  HE1 TRP A   6      30.056  -3.889 -14.189  0.00  0.00     0.222 HD
ATOM     57  CD2 TRP A   6      30.087  -2.312 -11.400  0.00  0.00    -0.021 A 
ATOM     58  CZ2 TRP A   6      30.869  -4.672 -11.491  0.00  0.00     0.010 A 
ATOM     59  CE3 TRP A   6      30.367  -2.330 -10.012  0.00  0.00    -0.021 A 
ATOM     60  CZ3 TRP A   6      30.878  -3.478  -9.378  0.00  0.00    -0.028 A 
ATOM     61  CH2 TRP A   6      31.133  -4.647 -10.113  0.00  0.00    -0.024 A 
ENDBRANCH  51  52
ENDBRANCH  50  51
BRANCH  50  62
ATOM     62  C   TRP A   6      27.189   0.529 -13.740  0.00  0.00     0.205 C 
ATOM     63  O   TRP A   6      26.892   0.076 -14.846  0.00  0.00    -0.394 OA
ATOM     64  N   SER A   7      26.296   0.694 -12.759  0.00  0.00    -0.260 N 
ATOM     65  HN  SER A   7      26.605   1.048 -11.864  0.00  0.00     0.189 HD
BRANCH  64  66
ATOM     66  CA  SER A   7      24.915   0.242 -12.819  0.00  0.00     0.249 C 
BRANCH  66  67
ATOM     67  CB  SER A   7      24.658  -0.747 -11.671  0.00  0.00     0.207 C 
BRANCH  67  68
ATOM     68  OG  SER A   7      25.318  -0.368 -10.477  0.00  0.00    -0.390 OA
ATOM     69  HG  SER A   7      26.011  -1.014 -10.285  0.00  0.00     0.210 HD
ENDBRANCH  67  68
ENDBRANCH  66  67
BRANCH  66  70
ATOM     70  C   SER A   7      23.965   1.445 -12.748  0.00  0.00     0.259 C 
ATOM     71  O   SER A   7      23.144   1.600 -11.844  0.00  0.00    -0.368 OA
BRANCH  70  72
ATOM     72  O   OH8 A          24.373   2.495 -13.520  0.00  0.00    -0.291 OA
ATOM     73  HO  OH8 A          25.282   2.428 -13.818  0.00  0.00     0.254 HD
ENDBRANCH  70  72
ENDBRANCH  66  70
ENDBRANCH  64  66
ENDBRANCH  50  62
ENDBRANCH  48  50
ENDBRANCH  42  46
ENDBRANCH  40  42
ENDBRANCH   1  38
TORSDOF 24
ENDMDL
MODEL 8
REMARK VINA RESULT:     -10.0      2.341      9.215
REMARK  24 active torsions:
REMARK  status: ('A' for Active; 'I' for Inactive)
REMARK    1  A    between atoms: CA_2  and  C_3 
REMARK       I    between atoms: N_10  and  C_3 
REMARK    2  A    between atoms: CA_11  and  N_10 
REMARK    3  A    between atoms: CA_11  and  C_12 
REMARK       I    between atoms: N_16  and  C_12 
REMARK    4  A    between atoms: CA_17  and  N_16 
REMARK    5  A    between atoms: CA_17  and  CB_20 
REMARK    6  A    between atoms: CA_17  and  C_18 
REMARK       I    between atoms: N_28  and  C_18 
REMARK    7  A    between atoms: CB_20  and  CG_21 
REMARK    8  A    between atoms: CA_29  and  N_28 
REMARK    9  A    between atoms: CA_29  and  CB_32 
REMARK   10  A    between atoms: CA_29  and  C_30 
REMARK       I    between atoms: N_40  and  C_30 
REMARK   11  A    between atoms: CB_32  and  CG_33 
REMARK   12  A    between atoms: CA_41  and  N_40 
REMARK   13  A    between atoms: CA_41  and  CB_44 
REMARK   14  A    between atoms: CA_41  and  C_42 
REMARK       I    between atoms: N_48  and  C_42 
REMARK   15  A    between atoms: CB_44  and  OG_45 
REMARK   16  A    between atoms: CA_49  and  N_48 
REMARK   17  A    between atoms: CA_49  and  CB_52 
REMARK   18  A    between atoms: CA_49  and  C_50 
REMARK       I    between atoms: N_64  and  C_50 
REMARK   19  A    between atoms: CB_52  and  CG_53 
REMARK   20  A    between atoms: CA_65  and  N_64 
REMARK   21  A    between atoms: CA_65  and  CB_68 
REMARK   22  A    between atoms: CA_65  and  C_66 
REMARK   23  A    between atoms: O_72  and  C_66 
REMARK   24  A    between atoms: CB_68  and  OG_69 
ROOT
ATOM      1  CA  HIS A   4      31.689   3.544 -10.668  0.00  0.00     0.225 C 
ENDROOT
BRANCH   1   2
ATOM      2  N   HIS A   4      31.007   2.255 -10.778  0.00  0.00    -0.262 N 
ATOM      3  HN  HIS A   4      31.578   1.483 -11.087  0.00  0.00     0.189 HD
ATOM      4  C   PHE A   3      29.681   2.061 -10.691  0.00  0.00     0.206 C 
ATOM      5  O   PHE A   3      28.891   2.925 -10.319  0.00  0.00    -0.394 OA
BRANCH   4   6
ATOM      6  CA  PHE A   3      29.153   0.704 -11.159  0.00  0.00     0.223 C 
BRANCH   6   7
ATOM      7  N   PHE A   3      27.701   0.794 -11.273  0.00  0.00    -0.262 N 
ATOM      8  HN  PHE A   3      27.307   1.721 -11.364  0.00  0.00     0.189 HD
ATOM      9  C   ALA A   2      26.871  -0.245 -11.118  0.00  0.00     0.204 C 
ATOM     10  O   ALA A   2      27.263  -1.402 -10.965  0.00  0.00    -0.394 OA
BRANCH   9  11
ATOM     11  CA  ALA A   2      25.373   0.059 -11.152  0.00  0.00     0.208 C 
ATOM     12  CB  ALA A   2      24.584  -1.147 -11.671  0.00  0.00     0.059 C 
BRANCH  11  13
ATOM     13  N   ALA A   2      25.153   1.207 -12.019  0.00  0.00    -0.261 N 
ATOM     14  HN  ALA A   2      25.162   1.009 -13.011  0.00  0.00     0.189 HD
ATOM     15  C   PRO A   1      25.045   2.470 -11.589  0.00  0.00     0.241 C 
ATOM     16  O   PRO A   1      25.052   2.790 -10.400  0.00  0.00    -0.390 OA
BRANCH  15  17
ATOM     17  CA  PRO A   1      24.898   3.563 -12.649  0.00  0.00     0.309 C 
ATOM     18  CB  PRO A   1      26.188   3.757 -13.463  0.00  0.00     0.098 C 
ATOM     19  CG  PRO A   1      26.837   4.987 -12.830  0.00  0.00     0.074 C 
ATOM     20  CD  PRO A   1      25.606   5.800 -12.446  0.00  0.00     0.280 C 
ATOM     21  N   PRO A   1      24.602   4.836 -11.960  0.00  0.00    -0.414 N 
ATOM     22  H1  PRO A   1      23.653   5.147 -12.115  0.00  0.00     0.369 HD
ATOM     23  H2  PRO A   1      24.747   4.638 -10.971  0.00  0.00     0.369 HD
ENDBRANCH  15  17
ENDBRANCH  11  13
ENDBRANCH   9  11
ENDBRANCH   6   7
BRANCH   6  24
ATOM     24  CB  PHE A   3      29.763   0.251 -12.499  0.00  0.00     0.116 C 
BRANCH  24  25
ATOM     25  CG  PHE A   3      29.276   0.963 -13.754  0.00  0.00    -0.039 A 
ATOM     26  CD1 PHE A   3      29.663   2.299 -13.981  0.00  0.00    -0.004 A 
ATOM     27  CE1 PHE A   3      29.190   2.997 -15.106  0.00  0.00    -0.009 A 
ATOM     28  CZ  PHE A   3      28.332   2.361 -16.020  0.00  0.00    -0.013 A 
ATOM     29  CE2 PHE A   3      27.943   1.029 -15.802  0.00  0.00    -0.009 A 
ATOM     30  CD2 PHE A   3      28.405   0.334 -14.671  0.00  0.00    -0.004 A 
ENDBRANCH  24  25
ENDBRANCH   6  24
ENDBRANCH   4   6
ENDBRANCH   1   2
BRANCH   1  31
ATOM     31  CB  HIS A   4      32.024   3.833  -9.190  0.00  0.00     0.141 C 
BRANCH  31  32
ATOM     32  CG  HIS A   4      31.726   5.244  -8.732  0.00  0.00     0.056 A 
ATOM     33  ND1 HIS A   4      30.918   5.596  -7.674  0.00  0.00    -0.262 N 
ATOM     34  CE1 HIS A   4      30.875   6.938  -7.616  0.00  0.00     0.202 A 
ATOM     35  HD1 HIS A   4      30.450   4.958  -7.045  0.00  0.00     0.239 HD
ATOM     36  NE2 HIS A   4      31.605   7.483  -8.601  0.00  0.00    -0.344 NA
ATOM     37  CD2 HIS A   4      32.158   6.412  -9.306  0.00  0.00     0.005 A 
ENDBRANCH  31  32
ENDBRANCH   1  31
BRANCH   1  38
ATOM     38  C   HIS A   4      32.906   3.657 -11.597  0.00  0.00     0.206 C 
ATOM     39  O   HIS A   4      32.983   4.565 -12.426  0.00  0.00    -0.394 OA
ATOM     40  N   SER A   5      33.845   2.709 -11.471  0.00  0.00    -0.261 N 
ATOM     41  HN  SER A   5      33.723   1.989 -10.773  0.00  0.00     0.188 HD
BRANCH  40  42
ATOM     42  CA  SER A   5      35.057   2.608 -12.276  0.00  0.00     0.236 C 
BRANCH  42  43
ATOM     43  CB  SER A   5      36.249   3.052 -11.411  0.00  0.00     0.206 C 
BRANCH  43  44
ATOM     44  OG  SER A   5      36.408   4.461 -11.419  0.00  0.00    -0.390 OA
ATOM     45  HG  SER A   5      37.186   4.679 -11.940  0.00  0.00     0.210 HD
ENDBRANCH  43  44
ENDBRANCH  42  43
BRANCH  42  46
ATOM     46  C   SER A   5      35.219   1.186 -12.846  0.00  0.00     0.206 C 
ATOM     47  O   SER A   5      35.054   0.953 -14.044  0.00  0.00    -0.394 OA
ATOM     48  N   TRP A   6      35.542   0.232 -11.963  0.00  0.00    -0.263 N 
ATOM     49  HN  TRP A   6      35.672   0.505 -10.996  0.00  0.00     0.188 HD
BRANCH  48  50
ATOM     50  CA  TRP A   6      35.812  -1.157 -12.295  0.00  0.00     0.217 C 
BRANCH  50  51
ATOM     51  CB  TRP A   6      36.640  -1.806 -11.176  0.00  0.00     0.084 C 
BRANCH  51  52
ATOM     52  CG  TRP A   6      38.003  -1.234 -10.879  0.00  0.00    -0.042 A 
ATOM     53  CD1 TRP A   6      39.133  -1.639 -11.500  0.00  0.00     0.096 A 
ATOM     54  NE1 TRP A   6      40.215  -0.926 -11.039  0.00  0.00    -0.289 N 
ATOM     55  CE2 TRP A   6      39.845  -0.007 -10.083  0.00  0.00     0.060 A 
ATOM     56  HE1 TRP A   6      41.152  -1.069 -11.389  0.00  0.00     0.222 HD
ATOM     57  CD2 TRP A   6      38.432  -0.182  -9.945  0.00  0.00    -0.021 A 
ATOM     58  CZ2 TRP A   6      40.572   0.934  -9.338  0.00  0.00     0.010 A 
ATOM     59  CE3 TRP A   6      37.791   0.651  -8.996  0.00  0.00    -0.021 A 
ATOM     60  CZ3 TRP A   6      38.511   1.593  -8.238  0.00  0.00    -0.028 A 
ATOM     61  CH2 TRP A   6      39.897   1.739  -8.408  0.00  0.00    -0.024 A 
ENDBRANCH  51  52
ENDBRANCH  50  51
BRANCH  50  62
ATOM     62  C   TRP A   6      34.489  -1.890 -12.537  0.00  0.00     0.205 C 
ATOM     63  O   TRP A   6      34.163  -2.256 -13.667  0.00  0.00    -0.394 OA
ATOM     64  N   SER A   7      33.751  -2.145 -11.450  0.00  0.00    -0.260 N 
ATOM     65  HN  SER A   7      34.083  -1.840 -10.546  0.00  0.00     0.189 HD
BRANCH  64  66
ATOM     66  CA  SER A   7      32.565  -2.987 -11.440  0.00  0.00     0.249 C 
BRANCH  66  67
ATOM     67  CB  SER A   7      32.993  -4.462 -11.498  0.00  0.00     0.207 C 
BRANCH  67  68
ATOM     68  OG  SER A   7      31.993  -5.290 -12.063  0.00  0.00    -0.390 OA
ATOM     69  HG  SER A   7      32.355  -6.176 -12.188  0.00  0.00     0.210 HD
ENDBRANCH  67  68
ENDBRANCH  66  67
BRANCH  66  70
ATOM     70  C   SER A   7      31.725  -2.694 -10.190  0.00  0.00     0.259 C 
ATOM     71  O   SER A   7      31.316  -1.568  -9.905  0.00  0.00    -0.368 OA
BRANCH  70  72
ATOM     72  O   OH8 A          31.146  -3.811  -9.660  0.00  0.00    -0.291 OA
ATOM     73  HO  OH8 A          31.616  -4.624  -9.859  0.00  0.00     0.254 HD
ENDBRANCH  70  72
ENDBRANCH  66  70
ENDBRANCH  64  66
ENDBRANCH  50  62
ENDBRANCH  48  50
ENDBRANCH  42  46
ENDBRANCH  40  42
ENDBRANCH   1  38
TORSDOF 24
ENDMDL
MODEL 9
REMARK VINA RESULT:      -9.9      2.208      4.269
REMARK  24 active torsions:
REMARK  status: ('A' for Active; 'I' for Inactive)
REMARK    1  A    between atoms: CA_2  and  C_3 
REMARK       I    between atoms: N_10  and  C_3 
REMARK    2  A    between atoms: CA_11  and  N_10 
REMARK    3  A    between atoms: CA_11  and  C_12 
REMARK       I    between atoms: N_16  and  C_12 
REMARK    4  A    between atoms: CA_17  and  N_16 
REMARK    5  A    between atoms: CA_17  and  CB_20 
REMARK    6  A    between atoms: CA_17  and  C_18 
REMARK       I    between atoms: N_28  and  C_18 
REMARK    7  A    between atoms: CB_20  and  CG_21 
REMARK    8  A    between atoms: CA_29  and  N_28 
REMARK    9  A    between atoms: CA_29  and  CB_32 
REMARK   10  A    between atoms: CA_29  and  C_30 
REMARK       I    between atoms: N_40  and  C_30 
REMARK   11  A    between atoms: CB_32  and  CG_33 
REMARK   12  A    between atoms: CA_41  and  N_40 
REMARK   13  A    between atoms: CA_41  and  CB_44 
REMARK   14  A    between atoms: CA_41  and  C_42 
REMARK       I    between atoms: N_48  and  C_42 
REMARK   15  A    between atoms: CB_44  and  OG_45 
REMARK   16  A    between atoms: CA_49  and  N_48 
REMARK   17  A    between atoms: CA_49  and  CB_52 
REMARK   18  A    between atoms: CA_49  and  C_50 
REMARK       I    between atoms: N_64  and  C_50 
REMARK   19  A    between atoms: CB_52  and  CG_53 
REMARK   20  A    between atoms: CA_65  and  N_64 
REMARK   21  A    between atoms: CA_65  and  CB_68 
REMARK   22  A    between atoms: CA_65  and  C_66 
REMARK   23  A    between atoms: O_72  and  C_66 
REMARK   24  A    between atoms: CB_68  and  OG_69 
ROOT
ATOM      1  CA  HIS A   4      35.558   3.124 -11.223  0.00  0.00     0.225 C 
ENDROOT
BRANCH   1   2
ATOM      2  N   HIS A   4      36.590   2.088 -11.201  0.00  0.00    -0.262 N 
ATOM      3  HN  HIS A   4      36.830   1.691 -12.097  0.00  0.00     0.189 HD
ATOM      4  C   PHE A   3      37.088   1.504 -10.099  0.00  0.00     0.206 C 
ATOM      5  O   PHE A   3      36.870   1.906  -8.960  0.00  0.00    -0.394 OA
BRANCH   4   6
ATOM      6  CA  PHE A   3      37.907   0.228 -10.309  0.00  0.00     0.223 C 
BRANCH   6   7
ATOM      7  N   PHE A   3      37.177  -0.635 -11.232  0.00  0.00    -0.262 N 
ATOM      8  HN  PHE A   3      37.686  -0.973 -12.039  0.00  0.00     0.189 HD
ATOM      9  C   ALA A   2      35.863  -0.876 -11.153  0.00  0.00     0.204 C 
ATOM     10  O   ALA A   2      35.160  -0.473 -10.226  0.00  0.00    -0.394 OA
BRANCH   9  11
ATOM     11  CA  ALA A   2      35.246  -1.708 -12.279  0.00  0.00     0.208 C 
ATOM     12  CB  ALA A   2      34.944  -0.833 -13.499  0.00  0.00     0.059 C 
BRANCH  11  13
ATOM     13  N   ALA A   2      34.017  -2.313 -11.786  0.00  0.00    -0.261 N 
ATOM     14  HN  ALA A   2      33.407  -1.696 -11.268  0.00  0.00     0.189 HD
ATOM     15  C   PRO A   1      33.718  -3.614 -11.895  0.00  0.00     0.241 C 
ATOM     16  O   PRO A   1      34.425  -4.429 -12.489  0.00  0.00    -0.390 OA
BRANCH  15  17
ATOM     17  CA  PRO A   1      32.418  -4.092 -11.248  0.00  0.00     0.309 C 
ATOM     18  CB  PRO A   1      31.467  -4.737 -12.271  0.00  0.00     0.098 C 
ATOM     19  CG  PRO A   1      30.461  -3.629 -12.581  0.00  0.00     0.074 C 
ATOM     20  CD  PRO A   1      30.367  -2.933 -11.229  0.00  0.00     0.280 C 
ATOM     21  N   PRO A   1      31.732  -2.919 -10.670  0.00  0.00    -0.414 N 
ATOM     22  H1  PRO A   1      31.741  -2.926  -9.659  0.00  0.00     0.369 HD
ATOM     23  H2  PRO A   1      32.251  -2.114 -11.018  0.00  0.00     0.369 HD
ENDBRANCH  15  17
ENDBRANCH  11  13
ENDBRANCH   9  11
ENDBRANCH   6   7
BRANCH   6  24
ATOM     24  CB  PHE A   3      39.323   0.505 -10.847  0.00  0.00     0.116 C 
BRANCH  24  25
ATOM     25  CG  PHE A   3      39.762  -0.286 -12.072  0.00  0.00    -0.039 A 
ATOM     26  CD1 PHE A   3      40.598  -1.408 -11.903  0.00  0.00    -0.004 A 
ATOM     27  CE1 PHE A   3      41.059  -2.128 -13.019  0.00  0.00    -0.009 A 
ATOM     28  CZ  PHE A   3      40.681  -1.737 -14.315  0.00  0.00    -0.013 A 
ATOM     29  CE2 PHE A   3      39.848  -0.620 -14.492  0.00  0.00    -0.009 A 
ATOM     30  CD2 PHE A   3      39.396   0.108 -13.378  0.00  0.00    -0.004 A 
ENDBRANCH  24  25
ENDBRANCH   6  24
ENDBRANCH   4   6
ENDBRANCH   1   2
BRANCH   1  31
ATOM     31  CB  HIS A   4      36.200   4.493 -11.528  0.00  0.00     0.141 C 
BRANCH  31  32
ATOM     32  CG  HIS A   4      35.249   5.670 -11.477  0.00  0.00     0.056 A 
ATOM     33  ND1 HIS A   4      35.311   6.792 -12.272  0.00  0.00    -0.262 N 
ATOM     34  CE1 HIS A   4      34.321   7.620 -11.895  0.00  0.00     0.202 A 
ATOM     35  HD1 HIS A   4      35.975   6.960 -13.014  0.00  0.00     0.239 HD
ATOM     36  NE2 HIS A   4      33.623   7.097 -10.875  0.00  0.00    -0.344 NA
ATOM     37  CD2 HIS A   4      34.200   5.853 -10.613  0.00  0.00     0.005 A 
ENDBRANCH  31  32
ENDBRANCH   1  31
BRANCH   1  38
ATOM     38  C   HIS A   4      34.389   2.783 -12.159  0.00  0.00     0.206 C 
ATOM     39  O   HIS A   4      34.526   2.834 -13.382  0.00  0.00    -0.394 OA
ATOM     40  N   SER A   5      33.228   2.462 -11.572  0.00  0.00    -0.261 N 
ATOM     41  HN  SER A   5      33.178   2.440 -10.564  0.00  0.00     0.188 HD
BRANCH  40  42
ATOM     42  CA  SER A   5      31.989   2.142 -12.272  0.00  0.00     0.236 C 
BRANCH  42  43
ATOM     43  CB  SER A   5      31.178   1.169 -11.399  0.00  0.00     0.206 C 
BRANCH  43  44
ATOM     44  OG  SER A   5      31.996   0.148 -10.852  0.00  0.00    -0.390 OA
ATOM     45  HG  SER A   5      32.625   0.550 -10.247  0.00  0.00     0.210 HD
ENDBRANCH  43  44
ENDBRANCH  42  43
BRANCH  42  46
ATOM     46  C   SER A   5      31.214   3.425 -12.628  0.00  0.00     0.206 C 
ATOM     47  O   SER A   5      31.277   3.920 -13.754  0.00  0.00    -0.394 OA
ATOM     48  N   TRP A   6      30.481   3.961 -11.644  0.00  0.00    -0.263 N 
ATOM     49  HN  TRP A   6      30.471   3.488 -10.748  0.00  0.00     0.188 HD
BRANCH  48  50
ATOM     50  CA  TRP A   6      29.620   5.125 -11.782  0.00  0.00     0.217 C 
BRANCH  50  51
ATOM     51  CB  TRP A   6      28.264   4.700 -12.365  0.00  0.00     0.084 C 
BRANCH  51  52
ATOM     52  CG  TRP A   6      27.876   3.246 -12.271  0.00  0.00    -0.042 A 
ATOM     53  CD1 TRP A   6      27.336   2.688 -11.165  0.00  0.00     0.096 A 
ATOM     54  NE1 TRP A   6      27.069   1.357 -11.381  0.00  0.00    -0.289 N 
ATOM     55  CE2 TRP A   6      27.421   0.970 -12.655  0.00  0.00     0.060 A 
ATOM     56  HE1 TRP A   6      26.649   0.763 -10.679  0.00  0.00     0.222 HD
ATOM     57  CD2 TRP A   6      27.953   2.155 -13.254  0.00  0.00    -0.021 A 
ATOM     58  CZ2 TRP A   6      27.339  -0.255 -13.333  0.00  0.00     0.010 A 
ATOM     59  CE3 TRP A   6      28.410   2.026 -14.589  0.00  0.00    -0.021 A 
ATOM     60  CZ3 TRP A   6      28.339   0.800 -15.276  0.00  0.00    -0.028 A 
ATOM     61  CH2 TRP A   6      27.803  -0.339 -14.654  0.00  0.00    -0.024 A 
ENDBRANCH  51  52
ENDBRANCH  50  51
BRANCH  50  62
ATOM     62  C   TRP A   6      29.475   5.816 -10.422  0.00  0.00     0.205 C 
ATOM     63  O   TRP A   6      28.555   5.526  -9.657  0.00  0.00    -0.394 OA
ATOM     64  N   SER A   7      30.429   6.701 -10.109  0.00  0.00    -0.260 N 
ATOM     65  HN  SER A   7      31.173   6.880 -10.770  0.00  0.00     0.189 HD
BRANCH  64  66
ATOM     66  CA  SER A   7      30.579   7.321  -8.802  0.00  0.00     0.249 C 
BRANCH  66  67
ATOM     67  CB  SER A   7      31.395   6.388  -7.893  0.00  0.00     0.207 C 
BRANCH  67  68
ATOM     68  OG  SER A   7      30.616   5.324  -7.376  0.00  0.00    -0.390 OA
ATOM     69  HG  SER A   7      30.517   4.649  -8.060  0.00  0.00     0.210 HD
ENDBRANCH  67  68
ENDBRANCH  66  67
BRANCH  66  70
ATOM     70  C   SER A   7      31.249   8.694  -8.946  0.00  0.00     0.259 C 
ATOM     71  O   SER A   7      31.340   9.287 -10.020  0.00  0.00    -0.368 OA
BRANCH  70  72
ATOM     72  O   OH8 A          31.364   9.360  -7.759  0.00  0.00    -0.291 OA
ATOM     73  HO  OH8 A          32.128   9.939  -7.712  0.00  0.00     0.254 HD
ENDBRANCH  70  72
ENDBRANCH  66  70
ENDBRANCH  64  66
ENDBRANCH  50  62
ENDBRANCH  48  50
ENDBRANCH  42  46
ENDBRANCH  40  42
ENDBRANCH   1  38
TORSDOF 24
ENDMDL
