MODEL 1
REMARK VINA RESULT:     -11.3      0.000      0.000
REMARK  21 active torsions:
REMARK  status: ('A' for Active; 'I' for Inactive)
REMARK    1  A    between atoms: CA_2  and  C_3 
REMARK       I    between atoms: C_3  and  N_10 
REMARK    2  A    between atoms: CA_11  and  N_10 
REMARK    3  A    between atoms: CA_11  and  C_12 
REMARK       I    between atoms: C_12  and  N_16 
REMARK    4  A    between atoms: CA_17  and  N_16 
REMARK    5  A    between atoms: CA_17  and  CB_20 
REMARK    6  A    between atoms: CA_17  and  C_18 
REMARK       I    between atoms: C_18  and  N_28 
REMARK    7  A    between atoms: CB_20  and  CG_21 
REMARK    8  A    between atoms: CA_29  and  N_28 
REMARK    9  A    between atoms: CA_29  and  CB_32 
REMARK   10  A    between atoms: CA_29  and  C_30 
REMARK       I    between atoms: C_30  and  N_40 
REMARK   11  A    between atoms: CB_32  and  CG_33 
REMARK   12  A    between atoms: CA_41  and  N_40 
REMARK   13  A    between atoms: CA_41  and  C_42 
REMARK       I    between atoms: C_42  and  N_46 
REMARK   14  A    between atoms: CA_47  and  N_46 
REMARK   15  A    between atoms: CA_47  and  CB_50 
REMARK   16  A    between atoms: CA_47  and  C_48 
REMARK       I    between atoms: C_48  and  N_62 
REMARK   17  A    between atoms: CB_50  and  CG_51 
REMARK   18  A    between atoms: CA_63  and  N_62 
REMARK   19  A    between atoms: CA_63  and  CB_66 
REMARK   20  A    between atoms: CA_63  and  C_64 
REMARK       I    between atoms: C_64  and  N_70 
REMARK   21  A    between atoms: CB_66  and  OG_67 
ROOT
ATOM      1  CA  HIS A   4      34.828   3.420 -11.326  0.00  0.00     0.225 C 
ENDROOT
BRANCH   1   2
ATOM      2  N   HIS A   4      35.895   2.447 -11.576  0.00  0.00    -0.262 N 
ATOM      3  HN  HIS A   4      36.042   2.204 -12.544  0.00  0.00     0.189 HD
ATOM      4  C   PHE A   3      36.611   1.783 -10.653  0.00  0.00     0.206 C 
ATOM      5  O   PHE A   3      36.543   2.000  -9.445  0.00  0.00    -0.394 OA
BRANCH   4   6
ATOM      6  CA  PHE A   3      37.501   0.648 -11.160  0.00  0.00     0.223 C 
BRANCH   6   7
ATOM      7  N   PHE A   3      36.723  -0.144 -12.105  0.00  0.00    -0.262 N 
ATOM      8  HN  PHE A   3      36.185   0.369 -12.791  0.00  0.00     0.189 HD
ATOM      9  C   ALA A   2      36.538  -1.466 -11.997  0.00  0.00     0.204 C 
ATOM     10  O   ALA A   2      37.117  -2.162 -11.162  0.00  0.00    -0.394 OA
BRANCH   9  11
ATOM     11  CA  ALA A   2      35.562  -2.107 -12.984  0.00  0.00     0.208 C 
ATOM     12  CB  ALA A   2      35.012  -1.065 -13.963  0.00  0.00     0.059 C 
BRANCH  11  13
ATOM     13  N   ALA A   2      34.467  -2.700 -12.228  0.00  0.00    -0.261 N 
ATOM     14  HN  ALA A   2      33.973  -2.067 -11.613  0.00  0.00     0.189 HD
ATOM     15  C   PRO A   1      34.150  -4.000 -12.243  0.00  0.00     0.241 C 
ATOM     16  O   PRO A   1      34.721  -4.835 -12.947  0.00  0.00    -0.390 OA
BRANCH  15  17
ATOM     17  CA  PRO A   1      33.003  -4.454 -11.339  0.00  0.00     0.309 C 
ATOM     18  CB  PRO A   1      31.930  -5.233 -12.116  0.00  0.00     0.098 C 
ATOM     19  CG  PRO A   1      30.825  -4.203 -12.347  0.00  0.00     0.074 C 
ATOM     20  CD  PRO A   1      30.928  -3.376 -11.070  0.00  0.00     0.280 C 
ATOM     21  N   PRO A   1      32.365  -3.252 -10.766  0.00  0.00    -0.414 N 
ATOM     22  H1  PRO A   1      32.549  -3.151  -9.777  0.00  0.00     0.369 HD
ATOM     23  H2  PRO A   1      32.771  -2.470 -11.278  0.00  0.00     0.369 HD
ENDBRANCH  15  17
ENDBRANCH  11  13
ENDBRANCH   9  11
ENDBRANCH   6   7
BRANCH   6  24
ATOM     24  CB  PHE A   3      38.802   1.147 -11.809  0.00  0.00     0.116 C 
BRANCH  24  25
ATOM     25  CG  PHE A   3      39.573   0.064 -12.542  0.00  0.00    -0.039 A 
ATOM     26  CD1 PHE A   3      40.337  -0.877 -11.823  0.00  0.00    -0.004 A 
ATOM     27  CE1 PHE A   3      41.030  -1.891 -12.505  0.00  0.00    -0.009 A 
ATOM     28  CZ  PHE A   3      40.966  -1.968 -13.908  0.00  0.00    -0.013 A 
ATOM     29  CE2 PHE A   3      40.207  -1.029 -14.627  0.00  0.00    -0.009 A 
ATOM     30  CD2 PHE A   3      39.509  -0.016 -13.946  0.00  0.00    -0.004 A 
ENDBRANCH  24  25
ENDBRANCH   6  24
ENDBRANCH   4   6
ENDBRANCH   1   2
BRANCH   1  31
ATOM     31  CB  HIS A   4      35.240   4.829 -11.809  0.00  0.00     0.141 C 
BRANCH  31  32
ATOM     32  CG  HIS A   4      34.508   5.973 -11.141  0.00  0.00     0.056 A 
ATOM     33  ND1 HIS A   4      34.326   7.232 -11.666  0.00  0.00    -0.262 N 
ATOM     34  CE1 HIS A   4      33.676   7.971 -10.751  0.00  0.00     0.202 A 
ATOM     35  HD1 HIS A   4      34.624   7.545 -12.580  0.00  0.00     0.239 HD
ATOM     36  NE2 HIS A   4      33.432   7.255  -9.642  0.00  0.00    -0.344 NA
ATOM     37  CD2 HIS A   4      33.946   5.980  -9.890  0.00  0.00     0.005 A 
ENDBRANCH  31  32
ENDBRANCH   1  31
BRANCH   1  38
ATOM     38  C   HIS A   4      33.462   2.972 -11.876  0.00  0.00     0.206 C 
ATOM     39  O   HIS A   4      33.113   3.254 -13.021  0.00  0.00    -0.394 OA
ATOM     40  N   ALA A   5      32.697   2.242 -11.052  0.00  0.00    -0.264 N 
ATOM     41  HN  ALA A   5      33.031   2.037 -10.122  0.00  0.00     0.188 HD
BRANCH  40  42
ATOM     42  CA  ALA A   5      31.361   1.760 -11.371  0.00  0.00     0.208 C 
ATOM     43  CB  ALA A   5      31.292   0.238 -11.195  0.00  0.00     0.059 C 
BRANCH  42  44
ATOM     44  C   ALA A   5      30.370   2.508 -10.480  0.00  0.00     0.204 C 
ATOM     45  O   ALA A   5      30.598   2.670  -9.279  0.00  0.00    -0.394 OA
ATOM     46  N   TRP A   6      29.292   3.002 -11.106  0.00  0.00    -0.263 N 
ATOM     47  HN  TRP A   6      29.198   2.833 -12.097  0.00  0.00     0.188 HD
BRANCH  46  48
ATOM     48  CA  TRP A   6      28.304   3.903 -10.518  0.00  0.00     0.217 C 
BRANCH  48  49
ATOM     49  CB  TRP A   6      28.743   5.354 -10.770  0.00  0.00     0.084 C 
BRANCH  49  50
ATOM     50  CG  TRP A   6      29.594   5.539 -11.993  0.00  0.00    -0.042 A 
ATOM     51  CD1 TRP A   6      30.906   5.867 -11.992  0.00  0.00     0.096 A 
ATOM     52  NE1 TRP A   6      31.353   6.011 -13.284  0.00  0.00    -0.289 N 
ATOM     53  CE2 TRP A   6      30.354   5.769 -14.200  0.00  0.00     0.060 A 
ATOM     54  HE1 TRP A   6      32.281   6.359 -13.507  0.00  0.00     0.222 HD
ATOM     55  CD2 TRP A   6      29.207   5.476 -13.401  0.00  0.00    -0.021 A 
ATOM     56  CZ2 TRP A   6      30.312   5.791 -15.602  0.00  0.00     0.010 A 
ATOM     57  CE3 TRP A   6      28.001   5.215 -14.089  0.00  0.00    -0.021 A 
ATOM     58  CZ3 TRP A   6      27.946   5.241 -15.497  0.00  0.00    -0.028 A 
ATOM     59  CH2 TRP A   6      29.096   5.526 -16.253  0.00  0.00    -0.024 A 
ENDBRANCH  49  50
ENDBRANCH  48  49
BRANCH  48  60
ATOM     60  C   TRP A   6      26.902   3.598 -11.067  0.00  0.00     0.205 C 
ATOM     61  O   TRP A   6      26.015   4.450 -11.096  0.00  0.00    -0.394 OA
ATOM     62  N   SER A   7      26.726   2.357 -11.528  0.00  0.00    -0.257 N 
ATOM     63  HN  SER A   7      27.534   1.746 -11.514  0.00  0.00     0.189 HD
BRANCH  62  64
ATOM     64  CA  SER A   7      25.527   1.869 -12.189  0.00  0.00     0.295 C 
BRANCH  64  65
ATOM     65  CB  SER A   7      25.682   2.025 -13.714  0.00  0.00     0.212 C 
BRANCH  65  66
ATOM     66  OG  SER A   7      25.039   3.197 -14.197  0.00  0.00    -0.390 OA
ATOM     67  HG  SER A   7      25.499   3.964 -13.840  0.00  0.00     0.210 HD
ENDBRANCH  65  66
ENDBRANCH  64  65
BRANCH  64  68
ATOM     68  C   SER A   7      25.291   0.413 -11.762  0.00  0.00     0.392 C 
ATOM     69  O   SER A   7      25.678   0.014 -10.670  0.00  0.00    -0.295 OA
ATOM     70  N   NHH A   8      24.752  -0.416 -12.659  0.00  0.00    -0.205 N 
ATOM     71  HN1 NHH A   8      24.414  -0.025 -13.535  0.00  0.00     0.454 HD
ATOM     72  HN2 NHH A   8      24.612  -1.388 -12.429  0.00  0.00     0.454 HD
ENDBRANCH  64  68
ENDBRANCH  62  64
ENDBRANCH  48  60
ENDBRANCH  46  48
ENDBRANCH  42  44
ENDBRANCH  40  42
ENDBRANCH   1  38
TORSDOF 21
ENDMDL
MODEL 2
REMARK VINA RESULT:     -10.8      2.034      3.861
REMARK  21 active torsions:
REMARK  status: ('A' for Active; 'I' for Inactive)
REMARK    1  A    between atoms: CA_2  and  C_3 
REMARK       I    between atoms: C_3  and  N_10 
REMARK    2  A    between atoms: CA_11  and  N_10 
REMARK    3  A    between atoms: CA_11  and  C_12 
REMARK       I    between atoms: C_12  and  N_16 
REMARK    4  A    between atoms: CA_17  and  N_16 
REMARK    5  A    between atoms: CA_17  and  CB_20 
REMARK    6  A    between atoms: CA_17  and  C_18 
REMARK       I    between atoms: C_18  and  N_28 
REMARK    7  A    between atoms: CB_20  and  CG_21 
REMARK    8  A    between atoms: CA_29  and  N_28 
REMARK    9  A    between atoms: CA_29  and  CB_32 
REMARK   10  A    between atoms: CA_29  and  C_30 
REMARK       I    between atoms: C_30  and  N_40 
REMARK   11  A    between atoms: CB_32  and  CG_33 
REMARK   12  A    between atoms: CA_41  and  N_40 
REMARK   13  A    between atoms: CA_41  and  C_42 
REMARK       I    between atoms: C_42  and  N_46 
REMARK   14  A    between atoms: CA_47  and  N_46 
REMARK   15  A    between atoms: CA_47  and  CB_50 
REMARK   16  A    between atoms: CA_47  and  C_48 
REMARK       I    between atoms: C_48  and  N_62 
REMARK   17  A    between atoms: CB_50  and  CG_51 
REMARK   18  A    between atoms: CA_63  and  N_62 
REMARK   19  A    between atoms: CA_63  and  CB_66 
REMARK   20  A    between atoms: CA_63  and  C_64 
REMARK       I    between atoms: C_64  and  N_70 
REMARK   21  A    between atoms: CB_66  and  OG_67 
ROOT
ATOM      1  CA  HIS A   4      35.026   3.164 -11.127  0.00  0.00     0.225 C 
ENDROOT
BRANCH   1   2
ATOM      2  N   HIS A   4      36.102   2.210 -11.406  0.00  0.00    -0.262 N 
ATOM      3  HN  HIS A   4      36.208   1.949 -12.375  0.00  0.00     0.189 HD
ATOM      4  C   PHE A   3      36.877   1.584 -10.505  0.00  0.00     0.206 C 
ATOM      5  O   PHE A   3      36.862   1.827  -9.300  0.00  0.00    -0.394 OA
BRANCH   4   6
ATOM      6  CA  PHE A   3      37.768   0.458 -11.030  0.00  0.00     0.223 C 
BRANCH   6   7
ATOM      7  N   PHE A   3      36.995  -0.314 -11.996  0.00  0.00    -0.262 N 
ATOM      8  HN  PHE A   3      36.505   0.212 -12.707  0.00  0.00     0.189 HD
ATOM      9  C   ALA A   2      36.752  -1.625 -11.880  0.00  0.00     0.204 C 
ATOM     10  O   ALA A   2      37.271  -2.333 -11.016  0.00  0.00    -0.394 OA
BRANCH   9  11
ATOM     11  CA  ALA A   2      35.788  -2.238 -12.896  0.00  0.00     0.208 C 
ATOM     12  CB  ALA A   2      35.370  -1.203 -13.945  0.00  0.00     0.059 C 
BRANCH  11  13
ATOM     13  N   ALA A   2      34.613  -2.720 -12.184  0.00  0.00    -0.261 N 
ATOM     14  HN  ALA A   2      34.147  -2.035 -11.605  0.00  0.00     0.189 HD
ATOM     15  C   PRO A   1      34.189  -3.990 -12.189  0.00  0.00     0.241 C 
ATOM     16  O   PRO A   1      34.720  -4.885 -12.849  0.00  0.00    -0.390 OA
BRANCH  15  17
ATOM     17  CA  PRO A   1      32.968  -4.326 -11.333  0.00  0.00     0.309 C 
ATOM     18  CB  PRO A   1      31.861  -5.012 -12.150  0.00  0.00     0.098 C 
ATOM     19  CG  PRO A   1      30.867  -3.886 -12.437  0.00  0.00     0.074 C 
ATOM     20  CD  PRO A   1      30.991  -3.058 -11.163  0.00  0.00     0.280 C 
ATOM     21  N   PRO A   1      32.419  -3.063 -10.797  0.00  0.00    -0.414 N 
ATOM     22  H1  PRO A   1      32.569  -2.969  -9.801  0.00  0.00     0.369 HD
ATOM     23  H2  PRO A   1      32.917  -2.329 -11.297  0.00  0.00     0.369 HD
ENDBRANCH  15  17
ENDBRANCH  11  13
ENDBRANCH   9  11
ENDBRANCH   6   7
BRANCH   6  24
ATOM     24  CB  PHE A   3      39.074   0.969 -11.662  0.00  0.00     0.116 C 
BRANCH  24  25
ATOM     25  CG  PHE A   3      39.785  -0.066 -12.514  0.00  0.00    -0.039 A 
ATOM     26  CD1 PHE A   3      40.555  -1.081 -11.910  0.00  0.00    -0.004 A 
ATOM     27  CE1 PHE A   3      41.192  -2.050 -12.703  0.00  0.00    -0.009 A 
ATOM     28  CZ  PHE A   3      41.066  -2.008 -14.103  0.00  0.00    -0.013 A 
ATOM     29  CE2 PHE A   3      40.301  -0.997 -14.708  0.00  0.00    -0.009 A 
ATOM     30  CD2 PHE A   3      39.659  -0.029 -13.916  0.00  0.00    -0.004 A 
ENDBRANCH  24  25
ENDBRANCH   6  24
ENDBRANCH   4   6
ENDBRANCH   1   2
BRANCH   1  31
ATOM     31  CB  HIS A   4      35.497   4.617 -11.365  0.00  0.00     0.141 C 
BRANCH  31  32
ATOM     32  CG  HIS A   4      34.430   5.674 -11.179  0.00  0.00     0.056 A 
ATOM     33  ND1 HIS A   4      33.801   6.372 -12.184  0.00  0.00    -0.262 N 
ATOM     34  CE1 HIS A   4      32.960   7.251 -11.613  0.00  0.00     0.202 A 
ATOM     35  HD1 HIS A   4      33.941   6.243 -13.177  0.00  0.00     0.239 HD
ATOM     36  NE2 HIS A   4      33.018   7.168 -10.273  0.00  0.00    -0.344 NA
ATOM     37  CD2 HIS A   4      33.940   6.157  -9.993  0.00  0.00     0.005 A 
ENDBRANCH  31  32
ENDBRANCH   1  31
BRANCH   1  38
ATOM     38  C   HIS A   4      33.715   2.829 -11.862  0.00  0.00     0.206 C 
ATOM     39  O   HIS A   4      33.725   2.387 -13.010  0.00  0.00    -0.394 OA
ATOM     40  N   ALA A   5      32.580   3.017 -11.175  0.00  0.00    -0.264 N 
ATOM     41  HN  ALA A   5      32.628   3.381 -10.234  0.00  0.00     0.188 HD
BRANCH  40  42
ATOM     42  CA  ALA A   5      31.243   2.797 -11.707  0.00  0.00     0.208 C 
ATOM     43  CB  ALA A   5      30.307   2.306 -10.596  0.00  0.00     0.059 C 
BRANCH  42  44
ATOM     44  C   ALA A   5      30.775   4.104 -12.347  0.00  0.00     0.204 C 
ATOM     45  O   ALA A   5      31.349   4.563 -13.337  0.00  0.00    -0.394 OA
ATOM     46  N   TRP A   6      29.691   4.663 -11.789  0.00  0.00    -0.263 N 
ATOM     47  HN  TRP A   6      29.278   4.205 -10.989  0.00  0.00     0.188 HD
BRANCH  46  48
ATOM     48  CA  TRP A   6      28.948   5.801 -12.325  0.00  0.00     0.217 C 
BRANCH  48  49
ATOM     49  CB  TRP A   6      27.714   5.277 -13.076  0.00  0.00     0.084 C 
BRANCH  49  50
ATOM     50  CG  TRP A   6      28.013   4.209 -14.088  0.00  0.00    -0.042 A 
ATOM     51  CD1 TRP A   6      28.490   4.424 -15.335  0.00  0.00     0.096 A 
ATOM     52  NE1 TRP A   6      28.590   3.230 -16.009  0.00  0.00    -0.289 N 
ATOM     53  CE2 TRP A   6      28.194   2.168 -15.227  0.00  0.00     0.060 A 
ATOM     54  HE1 TRP A   6      28.826   3.176 -16.995  0.00  0.00     0.222 HD
ATOM     55  CD2 TRP A   6      27.804   2.766 -13.991  0.00  0.00    -0.021 A 
ATOM     56  CZ2 TRP A   6      28.113   0.786 -15.457  0.00  0.00     0.010 A 
ATOM     57  CE3 TRP A   6      27.313   1.898 -12.991  0.00  0.00    -0.021 A 
ATOM     58  CZ3 TRP A   6      27.221   0.509 -13.212  0.00  0.00    -0.028 A 
ATOM     59  CH2 TRP A   6      27.621  -0.047 -14.439  0.00  0.00    -0.024 A 
ENDBRANCH  49  50
ENDBRANCH  48  49
BRANCH  48  60
ATOM     60  C   TRP A   6      28.592   6.789 -11.203  0.00  0.00     0.205 C 
ATOM     61  O   TRP A   6      27.545   7.434 -11.212  0.00  0.00    -0.394 OA
ATOM     62  N   SER A   7      29.485   6.875 -10.214  0.00  0.00    -0.257 N 
ATOM     63  HN  SER A   7      30.288   6.261 -10.268  0.00  0.00     0.189 HD
BRANCH  62  64
ATOM     64  CA  SER A   7      29.319   7.657  -8.999  0.00  0.00     0.295 C 
BRANCH  64  65
ATOM     65  CB  SER A   7      29.809   6.836  -7.790  0.00  0.00     0.212 C 
BRANCH  65  66
ATOM     66  OG  SER A   7      31.000   6.118  -8.083  0.00  0.00    -0.390 OA
ATOM     67  HG  SER A   7      30.952   5.261  -7.647  0.00  0.00     0.210 HD
ENDBRANCH  65  66
ENDBRANCH  64  65
BRANCH  64  68
ATOM     68  C   SER A   7      30.075   8.983  -9.162  0.00  0.00     0.392 C 
ATOM     69  O   SER A   7      29.622   9.874  -9.871  0.00  0.00    -0.295 OA
ATOM     70  N   NHH A   8      31.280   9.083  -8.596  0.00  0.00    -0.205 N 
ATOM     71  HN1 NHH A   8      31.591   8.330  -7.988  0.00  0.00     0.454 HD
ATOM     72  HN2 NHH A   8      31.823   9.925  -8.709  0.00  0.00     0.454 HD
ENDBRANCH  64  68
ENDBRANCH  62  64
ENDBRANCH  48  60
ENDBRANCH  46  48
ENDBRANCH  42  44
ENDBRANCH  40  42
ENDBRANCH   1  38
TORSDOF 21
ENDMDL
MODEL 3
REMARK VINA RESULT:     -10.6      2.230      9.828
REMARK  21 active torsions:
REMARK  status: ('A' for Active; 'I' for Inactive)
REMARK    1  A    between atoms: CA_2  and  C_3 
REMARK       I    between atoms: C_3  and  N_10 
REMARK    2  A    between atoms: CA_11  and  N_10 
REMARK    3  A    between atoms: CA_11  and  C_12 
REMARK       I    between atoms: C_12  and  N_16 
REMARK    4  A    between atoms: CA_17  and  N_16 
REMARK    5  A    between atoms: CA_17  and  CB_20 
REMARK    6  A    between atoms: CA_17  and  C_18 
REMARK       I    between atoms: C_18  and  N_28 
REMARK    7  A    between atoms: CB_20  and  CG_21 
REMARK    8  A    between atoms: CA_29  and  N_28 
REMARK    9  A    between atoms: CA_29  and  CB_32 
REMARK   10  A    between atoms: CA_29  and  C_30 
REMARK       I    between atoms: C_30  and  N_40 
REMARK   11  A    between atoms: CB_32  and  CG_33 
REMARK   12  A    between atoms: CA_41  and  N_40 
REMARK   13  A    between atoms: CA_41  and  C_42 
REMARK       I    between atoms: C_42  and  N_46 
REMARK   14  A    between atoms: CA_47  and  N_46 
REMARK   15  A    between atoms: CA_47  and  CB_50 
REMARK   16  A    between atoms: CA_47  and  C_48 
REMARK       I    between atoms: C_48  and  N_62 
REMARK   17  A    between atoms: CB_50  and  CG_51 
REMARK   18  A    between atoms: CA_63  and  N_62 
REMARK   19  A    between atoms: CA_63  and  CB_66 
REMARK   20  A    between atoms: CA_63  and  C_64 
REMARK       I    between atoms: C_64  and  N_70 
REMARK   21  A    between atoms: CB_66  and  OG_67 
ROOT
ATOM      1  CA  HIS A   4      33.860   4.933 -11.090  0.00  0.00     0.225 C 
ENDROOT
BRANCH   1   2
ATOM      2  N   HIS A   4      32.813   3.996 -11.503  0.00  0.00    -0.262 N 
ATOM      3  HN  HIS A   4      32.661   3.928 -12.498  0.00  0.00     0.189 HD
ATOM      4  C   PHE A   3      31.985   3.309 -10.699  0.00  0.00     0.206 C 
ATOM      5  O   PHE A   3      32.078   3.288  -9.474  0.00  0.00    -0.394 OA
BRANCH   4   6
ATOM      6  CA  PHE A   3      30.823   2.578 -11.373  0.00  0.00     0.223 C 
BRANCH   6   7
ATOM      7  N   PHE A   3      29.676   3.479 -11.392  0.00  0.00    -0.262 N 
ATOM      8  HN  PHE A   3      29.610   4.112 -12.179  0.00  0.00     0.189 HD
ATOM      9  C   ALA A   2      28.837   3.642 -10.361  0.00  0.00     0.204 C 
ATOM     10  O   ALA A   2      28.875   2.947  -9.345  0.00  0.00    -0.394 OA
BRANCH   9  11
ATOM     11  CA  ALA A   2      27.788   4.746 -10.495  0.00  0.00     0.208 C 
ATOM     12  CB  ALA A   2      27.574   5.460  -9.157  0.00  0.00     0.059 C 
BRANCH  11  13
ATOM     13  N   ALA A   2      26.539   4.142 -10.938  0.00  0.00    -0.261 N 
ATOM     14  HN  ALA A   2      25.912   3.855 -10.198  0.00  0.00     0.189 HD
ATOM     15  C   PRO A   1      26.230   3.883 -12.214  0.00  0.00     0.241 C 
ATOM     16  O   PRO A   1      26.954   4.180 -13.166  0.00  0.00    -0.390 OA
BRANCH  15  17
ATOM     17  CA  PRO A   1      24.895   3.190 -12.487  0.00  0.00     0.309 C 
ATOM     18  CB  PRO A   1      24.487   2.251 -11.340  0.00  0.00     0.098 C 
ATOM     19  CG  PRO A   1      24.871   0.862 -11.851  0.00  0.00     0.074 C 
ATOM     20  CD  PRO A   1      24.601   1.017 -13.344  0.00  0.00     0.280 C 
ATOM     21  N   PRO A   1      25.041   2.375 -13.710  0.00  0.00    -0.414 N 
ATOM     22  H1  PRO A   1      24.524   2.756 -14.492  0.00  0.00     0.369 HD
ATOM     23  H2  PRO A   1      26.038   2.383 -13.913  0.00  0.00     0.369 HD
ENDBRANCH  15  17
ENDBRANCH  11  13
ENDBRANCH   9  11
ENDBRANCH   6   7
BRANCH   6  24
ATOM     24  CB  PHE A   3      31.159   2.095 -12.794  0.00  0.00     0.116 C 
BRANCH  24  25
ATOM     25  CG  PHE A   3      30.041   1.305 -13.450  0.00  0.00    -0.039 A 
ATOM     26  CD1 PHE A   3      29.705   0.020 -12.978  0.00  0.00    -0.004 A 
ATOM     27  CE1 PHE A   3      28.654  -0.697 -13.574  0.00  0.00    -0.009 A 
ATOM     28  CZ  PHE A   3      27.938  -0.137 -14.646  0.00  0.00    -0.013 A 
ATOM     29  CE2 PHE A   3      28.272   1.143 -15.120  0.00  0.00    -0.009 A 
ATOM     30  CD2 PHE A   3      29.320   1.865 -14.522  0.00  0.00    -0.004 A 
ENDBRANCH  24  25
ENDBRANCH   6  24
ENDBRANCH   4   6
ENDBRANCH   1   2
BRANCH   1  31
ATOM     31  CB  HIS A   4      33.519   5.581  -9.728  0.00  0.00     0.141 C 
BRANCH  31  32
ATOM     32  CG  HIS A   4      32.896   6.957  -9.813  0.00  0.00     0.056 A 
ATOM     33  ND1 HIS A   4      33.579   8.152  -9.852  0.00  0.00    -0.262 N 
ATOM     34  CE1 HIS A   4      32.674   9.145  -9.873  0.00  0.00     0.202 A 
ATOM     35  HD1 HIS A   4      34.584   8.263  -9.868  0.00  0.00     0.239 HD
ATOM     36  NE2 HIS A   4      31.425   8.654  -9.838  0.00  0.00    -0.344 NA
ATOM     37  CD2 HIS A   4      31.560   7.265  -9.814  0.00  0.00     0.005 A 
ENDBRANCH  31  32
ENDBRANCH   1  31
BRANCH   1  38
ATOM     38  C   HIS A   4      35.271   4.318 -11.125  0.00  0.00     0.206 C 
ATOM     39  O   HIS A   4      36.228   4.946 -11.573  0.00  0.00    -0.394 OA
ATOM     40  N   ALA A   5      35.396   3.083 -10.619  0.00  0.00    -0.264 N 
ATOM     41  HN  ALA A   5      34.578   2.611 -10.263  0.00  0.00     0.188 HD
BRANCH  40  42
ATOM     42  CA  ALA A   5      36.634   2.318 -10.598  0.00  0.00     0.208 C 
ATOM     43  CB  ALA A   5      36.858   1.714  -9.207  0.00  0.00     0.059 C 
BRANCH  42  44
ATOM     44  C   ALA A   5      36.548   1.261 -11.700  0.00  0.00     0.204 C 
ATOM     45  O   ALA A   5      36.543   1.588 -12.889  0.00  0.00    -0.394 OA
ATOM     46  N   TRP A   6      36.532  -0.012 -11.278  0.00  0.00    -0.263 N 
ATOM     47  HN  TRP A   6      36.555  -0.183 -10.283  0.00  0.00     0.188 HD
BRANCH  46  48
ATOM     48  CA  TRP A   6      36.638  -1.193 -12.130  0.00  0.00     0.217 C 
BRANCH  48  49
ATOM     49  CB  TRP A   6      35.299  -1.407 -12.852  0.00  0.00     0.084 C 
BRANCH  49  50
ATOM     50  CG  TRP A   6      34.471  -2.531 -12.299  0.00  0.00    -0.042 A 
ATOM     51  CD1 TRP A   6      34.692  -3.847 -12.518  0.00  0.00     0.096 A 
ATOM     52  NE1 TRP A   6      33.710  -4.594 -11.911  0.00  0.00    -0.289 N 
ATOM     53  CE2 TRP A   6      32.801  -3.799 -11.250  0.00  0.00     0.060 A 
ATOM     54  HE1 TRP A   6      33.628  -5.597 -12.039  0.00  0.00     0.222 HD
ATOM     55  CD2 TRP A   6      33.254  -2.467 -11.492  0.00  0.00    -0.021 A 
ATOM     56  CZ2 TRP A   6      31.648  -4.080 -10.502  0.00  0.00     0.010 A 
ATOM     57  CE3 TRP A   6      32.476  -1.420 -10.949  0.00  0.00    -0.021 A 
ATOM     58  CZ3 TRP A   6      31.312  -1.690 -10.201  0.00  0.00    -0.028 A 
ATOM     59  CH2 TRP A   6      30.899  -3.015  -9.976  0.00  0.00    -0.024 A 
ENDBRANCH  49  50
ENDBRANCH  48  49
BRANCH  48  60
ATOM     60  C   TRP A   6      37.824  -1.055 -13.097  0.00  0.00     0.205 C 
ATOM     61  O   TRP A   6      37.714  -1.288 -14.300  0.00  0.00    -0.394 OA
ATOM     62  N   SER A   7      38.968  -0.643 -12.544  0.00  0.00    -0.257 N 
ATOM     63  HN  SER A   7      38.943  -0.422 -11.556  0.00  0.00     0.189 HD
BRANCH  62  64
ATOM     64  CA  SER A   7      40.190  -0.338 -13.270  0.00  0.00     0.295 C 
BRANCH  64  65
ATOM     65  CB  SER A   7      40.991   0.729 -12.499  0.00  0.00     0.212 C 
BRANCH  65  66
ATOM     66  OG  SER A   7      42.341   0.802 -12.940  0.00  0.00    -0.390 OA
ATOM     67  HG  SER A   7      42.676  -0.096 -13.038  0.00  0.00     0.210 HD
ENDBRANCH  65  66
ENDBRANCH  64  65
BRANCH  64  68
ATOM     68  C   SER A   7      40.977  -1.640 -13.473  0.00  0.00     0.392 C 
ATOM     69  O   SER A   7      41.814  -1.997 -12.652  0.00  0.00    -0.295 OA
ATOM     70  N   NHH A   8      40.794  -2.302 -14.618  0.00  0.00    -0.205 N 
ATOM     71  HN1 NHH A   8      40.061  -1.985 -15.247  0.00  0.00     0.454 HD
ATOM     72  HN2 NHH A   8      41.318  -3.143 -14.804  0.00  0.00     0.454 HD
ENDBRANCH  64  68
ENDBRANCH  62  64
ENDBRANCH  48  60
ENDBRANCH  46  48
ENDBRANCH  42  44
ENDBRANCH  40  42
ENDBRANCH   1  38
TORSDOF 21
ENDMDL
MODEL 4
REMARK VINA RESULT:     -10.6      2.739     10.164
REMARK  21 active torsions:
REMARK  status: ('A' for Active; 'I' for Inactive)
REMARK    1  A    between atoms: CA_2  and  C_3 
REMARK       I    between atoms: C_3  and  N_10 
REMARK    2  A    between atoms: CA_11  and  N_10 
REMARK    3  A    between atoms: CA_11  and  C_12 
REMARK       I    between atoms: C_12  and  N_16 
REMARK    4  A    between atoms: CA_17  and  N_16 
REMARK    5  A    between atoms: CA_17  and  CB_20 
REMARK    6  A    between atoms: CA_17  and  C_18 
REMARK       I    between atoms: C_18  and  N_28 
REMARK    7  A    between atoms: CB_20  and  CG_21 
REMARK    8  A    between atoms: CA_29  and  N_28 
REMARK    9  A    between atoms: CA_29  and  CB_32 
REMARK   10  A    between atoms: CA_29  and  C_30 
REMARK       I    between atoms: C_30  and  N_40 
REMARK   11  A    between atoms: CB_32  and  CG_33 
REMARK   12  A    between atoms: CA_41  and  N_40 
REMARK   13  A    between atoms: CA_41  and  C_42 
REMARK       I    between atoms: C_42  and  N_46 
REMARK   14  A    between atoms: CA_47  and  N_46 
REMARK   15  A    between atoms: CA_47  and  CB_50 
REMARK   16  A    between atoms: CA_47  and  C_48 
REMARK       I    between atoms: C_48  and  N_62 
REMARK   17  A    between atoms: CB_50  and  CG_51 
REMARK   18  A    between atoms: CA_63  and  N_62 
REMARK   19  A    between atoms: CA_63  and  CB_66 
REMARK   20  A    between atoms: CA_63  and  C_64 
REMARK       I    between atoms: C_64  and  N_70 
REMARK   21  A    between atoms: CB_66  and  OG_67 
ROOT
ATOM      1  CA  HIS A   4      31.853   2.558 -11.699  0.00  0.00     0.225 C 
ENDROOT
BRANCH   1   2
ATOM      2  N   HIS A   4      31.157   3.688 -11.079  0.00  0.00    -0.262 N 
ATOM      3  HN  HIS A   4      30.571   4.228 -11.698  0.00  0.00     0.189 HD
ATOM      4  C   PHE A   3      31.299   4.126  -9.817  0.00  0.00     0.206 C 
ATOM      5  O   PHE A   3      31.963   3.548  -8.960  0.00  0.00    -0.394 OA
BRANCH   4   6
ATOM      6  CA  PHE A   3      30.643   5.465  -9.477  0.00  0.00     0.223 C 
BRANCH   6   7
ATOM      7  N   PHE A   3      29.605   5.721 -10.468  0.00  0.00    -0.262 N 
ATOM      8  HN  PHE A   3      29.245   4.917 -10.965  0.00  0.00     0.189 HD
ATOM      9  C   ALA A   2      29.251   6.945 -10.879  0.00  0.00     0.204 C 
ATOM     10  O   ALA A   2      29.675   7.979 -10.362  0.00  0.00    -0.394 OA
BRANCH   9  11
ATOM     11  CA  ALA A   2      28.260   7.021 -12.041  0.00  0.00     0.208 C 
ATOM     12  CB  ALA A   2      26.861   6.587 -11.594  0.00  0.00     0.059 C 
BRANCH  11  13
ATOM     13  N   ALA A   2      28.732   6.148 -13.106  0.00  0.00    -0.261 N 
ATOM     14  HN  ALA A   2      28.033   5.534 -13.503  0.00  0.00     0.189 HD
ATOM     15  C   PRO A   1      30.005   6.059 -13.509  0.00  0.00     0.241 C 
ATOM     16  O   PRO A   1      30.915   6.755 -13.055  0.00  0.00    -0.390 OA
BRANCH  15  17
ATOM     17  CA  PRO A   1      30.326   5.041 -14.604  0.00  0.00     0.309 C 
ATOM     18  CB  PRO A   1      30.271   5.666 -16.007  0.00  0.00     0.098 C 
ATOM     19  CG  PRO A   1      28.907   5.236 -16.546  0.00  0.00     0.074 C 
ATOM     20  CD  PRO A   1      28.765   3.857 -15.910  0.00  0.00     0.280 C 
ATOM     21  N   PRO A   1      29.314   3.967 -14.546  0.00  0.00    -0.414 N 
ATOM     22  H1  PRO A   1      29.695   3.095 -14.205  0.00  0.00     0.369 HD
ATOM     23  H2  PRO A   1      28.603   4.312 -13.904  0.00  0.00     0.369 HD
ENDBRANCH  15  17
ENDBRANCH  11  13
ENDBRANCH   9  11
ENDBRANCH   6   7
BRANCH   6  24
ATOM     24  CB  PHE A   3      30.060   5.505  -8.055  0.00  0.00     0.116 C 
BRANCH  24  25
ATOM     25  CG  PHE A   3      30.695   6.558  -7.164  0.00  0.00    -0.039 A 
ATOM     26  CD1 PHE A   3      31.929   7.141  -7.518  0.00  0.00    -0.004 A 
ATOM     27  CE1 PHE A   3      32.501   8.131  -6.702  0.00  0.00    -0.009 A 
ATOM     28  CZ  PHE A   3      31.846   8.540  -5.527  0.00  0.00    -0.013 A 
ATOM     29  CE2 PHE A   3      30.617   7.959  -5.171  0.00  0.00    -0.009 A 
ATOM     30  CD2 PHE A   3      30.041   6.971  -5.988  0.00  0.00    -0.004 A 
ENDBRANCH  24  25
ENDBRANCH   6  24
ENDBRANCH   4   6
ENDBRANCH   1   2
BRANCH   1  31
ATOM     31  CB  HIS A   4      30.927   1.808 -12.683  0.00  0.00     0.141 C 
BRANCH  31  32
ATOM     32  CG  HIS A   4      29.975   0.822 -12.041  0.00  0.00     0.056 A 
ATOM     33  ND1 HIS A   4      29.868   0.563 -10.693  0.00  0.00    -0.262 N 
ATOM     34  CE1 HIS A   4      28.952  -0.406 -10.530  0.00  0.00     0.202 A 
ATOM     35  HD1 HIS A   4      30.384   1.024  -9.956  0.00  0.00     0.239 HD
ATOM     36  NE2 HIS A   4      28.459  -0.803 -11.714  0.00  0.00    -0.344 NA
ATOM     37  CD2 HIS A   4      29.095  -0.016 -12.676  0.00  0.00     0.005 A 
ENDBRANCH  31  32
ENDBRANCH   1  31
BRANCH   1  38
ATOM     38  C   HIS A   4      33.203   2.952 -12.327  0.00  0.00     0.206 C 
ATOM     39  O   HIS A   4      33.256   3.690 -13.309  0.00  0.00    -0.394 OA
ATOM     40  N   ALA A   5      34.302   2.470 -11.729  0.00  0.00    -0.264 N 
ATOM     41  HN  ALA A   5      34.202   1.869 -10.924  0.00  0.00     0.188 HD
BRANCH  40  42
ATOM     42  CA  ALA A   5      35.663   2.696 -12.194  0.00  0.00     0.208 C 
ATOM     43  CB  ALA A   5      36.545   3.171 -11.033  0.00  0.00     0.059 C 
BRANCH  42  44
ATOM     44  C   ALA A   5      36.161   1.396 -12.827  0.00  0.00     0.204 C 
ATOM     45  O   ALA A   5      36.634   1.391 -13.966  0.00  0.00    -0.394 OA
ATOM     46  N   TRP A   6      36.089   0.309 -12.045  0.00  0.00    -0.263 N 
ATOM     47  HN  TRP A   6      35.701   0.415 -11.119  0.00  0.00     0.188 HD
BRANCH  46  48
ATOM     48  CA  TRP A   6      36.665  -0.998 -12.349  0.00  0.00     0.217 C 
BRANCH  48  49
ATOM     49  CB  TRP A   6      37.343  -1.547 -11.084  0.00  0.00     0.084 C 
BRANCH  49  50
ATOM     50  CG  TRP A   6      38.631  -0.864 -10.726  0.00  0.00    -0.042 A 
ATOM     51  CD1 TRP A   6      39.841  -1.145 -11.261  0.00  0.00     0.096 A 
ATOM     52  NE1 TRP A   6      40.808  -0.373 -10.662  0.00  0.00    -0.289 N 
ATOM     53  CE2 TRP A   6      40.273   0.467  -9.710  0.00  0.00     0.060 A 
ATOM     54  HE1 TRP A   6      41.799  -0.500 -10.841  0.00  0.00     0.222 HD
ATOM     55  CD2 TRP A   6      38.877   0.165  -9.718  0.00  0.00    -0.021 A 
ATOM     56  CZ2 TRP A   6      40.835   1.419  -8.848  0.00  0.00     0.010 A 
ATOM     57  CE3 TRP A   6      38.069   0.867  -8.797  0.00  0.00    -0.021 A 
ATOM     58  CZ3 TRP A   6      38.623   1.822  -7.921  0.00  0.00    -0.028 A 
ATOM     59  CH2 TRP A   6      40.001   2.100  -7.946  0.00  0.00    -0.024 A 
ENDBRANCH  49  50
ENDBRANCH  48  49
BRANCH  48  60
ATOM     60  C   TRP A   6      35.592  -1.942 -12.912  0.00  0.00     0.205 C 
ATOM     61  O   TRP A   6      35.756  -2.561 -13.962  0.00  0.00    -0.394 OA
ATOM     62  N   SER A   7      34.488  -2.059 -12.170  0.00  0.00    -0.257 N 
ATOM     63  HN  SER A   7      34.471  -1.553 -11.293  0.00  0.00     0.189 HD
BRANCH  62  64
ATOM     64  CA  SER A   7      33.387  -2.969 -12.440  0.00  0.00     0.295 C 
BRANCH  64  65
ATOM     65  CB  SER A   7      33.727  -4.366 -11.887  0.00  0.00     0.212 C 
BRANCH  65  66
ATOM     66  OG  SER A   7      34.634  -5.065 -12.729  0.00  0.00    -0.390 OA
ATOM     67  HG  SER A   7      35.369  -4.478 -12.937  0.00  0.00     0.210 HD
ENDBRANCH  65  66
ENDBRANCH  64  65
BRANCH  64  68
ATOM     68  C   SER A   7      32.106  -2.384 -11.828  0.00  0.00     0.392 C 
ATOM     69  O   SER A   7      32.168  -1.498 -10.983  0.00  0.00    -0.295 OA
ATOM     70  N   NHH A   8      30.944  -2.946 -12.168  0.00  0.00    -0.205 N 
ATOM     71  HN1 NHH A   8      30.945  -3.651 -12.900  0.00  0.00     0.454 HD
ATOM     72  HN2 NHH A   8      30.084  -2.613 -11.761  0.00  0.00     0.454 HD
ENDBRANCH  64  68
ENDBRANCH  62  64
ENDBRANCH  48  60
ENDBRANCH  46  48
ENDBRANCH  42  44
ENDBRANCH  40  42
ENDBRANCH   1  38
TORSDOF 21
ENDMDL
MODEL 5
REMARK VINA RESULT:     -10.6      2.241      9.021
REMARK  21 active torsions:
REMARK  status: ('A' for Active; 'I' for Inactive)
REMARK    1  A    between atoms: CA_2  and  C_3 
REMARK       I    between atoms: C_3  and  N_10 
REMARK    2  A    between atoms: CA_11  and  N_10 
REMARK    3  A    between atoms: CA_11  and  C_12 
REMARK       I    between atoms: C_12  and  N_16 
REMARK    4  A    between atoms: CA_17  and  N_16 
REMARK    5  A    between atoms: CA_17  and  CB_20 
REMARK    6  A    between atoms: CA_17  and  C_18 
REMARK       I    between atoms: C_18  and  N_28 
REMARK    7  A    between atoms: CB_20  and  CG_21 
REMARK    8  A    between atoms: CA_29  and  N_28 
REMARK    9  A    between atoms: CA_29  and  CB_32 
REMARK   10  A    between atoms: CA_29  and  C_30 
REMARK       I    between atoms: C_30  and  N_40 
REMARK   11  A    between atoms: CB_32  and  CG_33 
REMARK   12  A    between atoms: CA_41  and  N_40 
REMARK   13  A    between atoms: CA_41  and  C_42 
REMARK       I    between atoms: C_42  and  N_46 
REMARK   14  A    between atoms: CA_47  and  N_46 
REMARK   15  A    between atoms: CA_47  and  CB_50 
REMARK   16  A    between atoms: CA_47  and  C_48 
REMARK       I    between atoms: C_48  and  N_62 
REMARK   17  A    between atoms: CB_50  and  CG_51 
REMARK   18  A    between atoms: CA_63  and  N_62 
REMARK   19  A    between atoms: CA_63  and  CB_66 
REMARK   20  A    between atoms: CA_63  and  C_64 
REMARK       I    between atoms: C_64  and  N_70 
REMARK   21  A    between atoms: CB_66  and  OG_67 
ROOT
ATOM      1  CA  HIS A   4      33.464   5.501 -11.010  0.00  0.00     0.225 C 
ENDROOT
BRANCH   1   2
ATOM      2  N   HIS A   4      32.279   4.707 -11.343  0.00  0.00    -0.262 N 
ATOM      3  HN  HIS A   4      32.256   3.778 -10.950  0.00  0.00     0.189 HD
ATOM      4  C   PHE A   3      31.291   5.050 -12.187  0.00  0.00     0.206 C 
ATOM      5  O   PHE A   3      31.191   6.156 -12.713  0.00  0.00    -0.394 OA
BRANCH   4   6
ATOM      6  CA  PHE A   3      30.288   3.955 -12.551  0.00  0.00     0.223 C 
BRANCH   6   7
ATOM      7  N   PHE A   3      28.965   4.399 -12.126  0.00  0.00    -0.262 N 
ATOM      8  HN  PHE A   3      28.520   5.106 -12.696  0.00  0.00     0.189 HD
ATOM      9  C   ALA A   2      28.409   4.071 -10.953  0.00  0.00     0.204 C 
ATOM     10  O   ALA A   2      28.905   3.254 -10.177  0.00  0.00    -0.394 OA
BRANCH   9  11
ATOM     11  CA  ALA A   2      27.088   4.757 -10.603  0.00  0.00     0.208 C 
ATOM     12  CB  ALA A   2      26.979   4.991  -9.093  0.00  0.00     0.059 C 
BRANCH  11  13
ATOM     13  N   ALA A   2      25.994   3.905 -11.049  0.00  0.00    -0.261 N 
ATOM     14  HN  ALA A   2      25.596   3.305 -10.340  0.00  0.00     0.189 HD
ATOM     15  C   PRO A   1      25.566   3.818 -12.315  0.00  0.00     0.241 C 
ATOM     16  O   PRO A   1      26.020   4.498 -13.237  0.00  0.00    -0.390 OA
BRANCH  15  17
ATOM     17  CA  PRO A   1      24.443   2.824 -12.610  0.00  0.00     0.309 C 
ATOM     18  CB  PRO A   1      24.150   1.911 -11.409  0.00  0.00     0.098 C 
ATOM     19  CG  PRO A   1      24.869   0.608 -11.755  0.00  0.00     0.074 C 
ATOM     20  CD  PRO A   1      24.705   0.580 -13.271  0.00  0.00     0.280 C 
ATOM     21  N   PRO A   1      24.870   1.969 -13.736  0.00  0.00    -0.414 N 
ATOM     22  H1  PRO A   1      24.354   2.162 -14.585  0.00  0.00     0.369 HD
ATOM     23  H2  PRO A   1      25.856   2.184 -13.870  0.00  0.00     0.369 HD
ENDBRANCH  15  17
ENDBRANCH  11  13
ENDBRANCH   9  11
ENDBRANCH   6   7
BRANCH   6  24
ATOM     24  CB  PHE A   3      30.290   3.611 -14.050  0.00  0.00     0.116 C 
BRANCH  24  25
ATOM     25  CG  PHE A   3      29.478   2.376 -14.393  0.00  0.00    -0.039 A 
ATOM     26  CD1 PHE A   3      28.633   2.369 -15.522  0.00  0.00    -0.004 A 
ATOM     27  CE1 PHE A   3      27.901   1.215 -15.848  0.00  0.00    -0.009 A 
ATOM     28  CZ  PHE A   3      28.005   0.065 -15.046  0.00  0.00    -0.013 A 
ATOM     29  CE2 PHE A   3      28.844   0.070 -13.918  0.00  0.00    -0.009 A 
ATOM     30  CD2 PHE A   3      29.581   1.222 -13.593  0.00  0.00    -0.004 A 
ENDBRANCH  24  25
ENDBRANCH   6  24
ENDBRANCH   4   6
ENDBRANCH   1   2
BRANCH   1  31
ATOM     31  CB  HIS A   4      33.526   5.795  -9.494  0.00  0.00     0.141 C 
BRANCH  31  32
ATOM     32  CG  HIS A   4      33.365   7.252  -9.117  0.00  0.00     0.056 A 
ATOM     33  ND1 HIS A   4      33.354   7.759  -7.838  0.00  0.00    -0.262 N 
ATOM     34  CE1 HIS A   4      33.139   9.083  -7.920  0.00  0.00     0.202 A 
ATOM     35  HD1 HIS A   4      33.490   7.230  -6.987  0.00  0.00     0.239 HD
ATOM     36  NE2 HIS A   4      32.996   9.466  -9.199  0.00  0.00    -0.344 NA
ATOM     37  CD2 HIS A   4      33.153   8.309  -9.964  0.00  0.00     0.005 A 
ENDBRANCH  31  32
ENDBRANCH   1  31
BRANCH   1  38
ATOM     38  C   HIS A   4      34.770   4.898 -11.559  0.00  0.00     0.206 C 
ATOM     39  O   HIS A   4      35.685   5.618 -11.956  0.00  0.00    -0.394 OA
ATOM     40  N   ALA A   5      34.858   3.561 -11.552  0.00  0.00    -0.264 N 
ATOM     41  HN  ALA A   5      34.078   3.016 -11.215  0.00  0.00     0.188 HD
BRANCH  40  42
ATOM     42  CA  ALA A   5      35.991   2.803 -12.065  0.00  0.00     0.208 C 
ATOM     43  CB  ALA A   5      36.839   2.271 -10.903  0.00  0.00     0.059 C 
BRANCH  42  44
ATOM     44  C   ALA A   5      35.443   1.692 -12.961  0.00  0.00     0.204 C 
ATOM     45  O   ALA A   5      35.187   1.908 -14.148  0.00  0.00    -0.394 OA
ATOM     46  N   TRP A   6      35.317   0.491 -12.378  0.00  0.00    -0.263 N 
ATOM     47  HN  TRP A   6      35.568   0.407 -11.403  0.00  0.00     0.188 HD
BRANCH  46  48
ATOM     48  CA  TRP A   6      34.995  -0.758 -13.063  0.00  0.00     0.217 C 
BRANCH  48  49
ATOM     49  CB  TRP A   6      36.175  -1.729 -12.904  0.00  0.00     0.084 C 
BRANCH  49  50
ATOM     50  CG  TRP A   6      37.509  -1.148 -13.274  0.00  0.00    -0.042 A 
ATOM     51  CD1 TRP A   6      37.928  -0.887 -14.533  0.00  0.00     0.096 A 
ATOM     52  NE1 TRP A   6      39.219  -0.416 -14.508  0.00  0.00    -0.289 N 
ATOM     53  CE2 TRP A   6      39.707  -0.331 -13.223  0.00  0.00     0.060 A 
ATOM     54  HE1 TRP A   6      39.760  -0.258 -15.352  0.00  0.00     0.222 HD
ATOM     55  CD2 TRP A   6      38.636  -0.808 -12.407  0.00  0.00    -0.021 A 
ATOM     56  CZ2 TRP A   6      40.938   0.077 -12.691  0.00  0.00     0.010 A 
ATOM     57  CE3 TRP A   6      38.873  -0.866 -11.016  0.00  0.00    -0.021 A 
ATOM     58  CZ3 TRP A   6      40.108  -0.464 -10.470  0.00  0.00    -0.028 A 
ATOM     59  CH2 TRP A   6      41.138   0.007 -11.302  0.00  0.00    -0.024 A 
ENDBRANCH  49  50
ENDBRANCH  48  49
BRANCH  48  60
ATOM     60  C   TRP A   6      33.670  -1.334 -12.539  0.00  0.00     0.205 C 
ATOM     61  O   TRP A   6      33.316  -2.485 -12.790  0.00  0.00    -0.394 OA
ATOM     62  N   SER A   7      32.950  -0.507 -11.777  0.00  0.00    -0.257 N 
ATOM     63  HN  SER A   7      33.353   0.401 -11.580  0.00  0.00     0.189 HD
BRANCH  62  64
ATOM     64  CA  SER A   7      31.721  -0.860 -11.084  0.00  0.00     0.295 C 
BRANCH  64  65
ATOM     65  CB  SER A   7      32.041  -1.842  -9.941  0.00  0.00     0.212 C 
BRANCH  65  66
ATOM     66  OG  SER A   7      30.867  -2.271  -9.264  0.00  0.00    -0.390 OA
ATOM     67  HG  SER A   7      30.645  -1.614  -8.595  0.00  0.00     0.210 HD
ENDBRANCH  65  66
ENDBRANCH  64  65
BRANCH  64  68
ATOM     68  C   SER A   7      31.050   0.429 -10.589  0.00  0.00     0.392 C 
ATOM     69  O   SER A   7      31.666   1.489 -10.583  0.00  0.00    -0.295 OA
ATOM     70  N   NHH A   8      29.824   0.330 -10.072  0.00  0.00    -0.205 N 
ATOM     71  HN1 NHH A   8      29.344  -0.564 -10.136  0.00  0.00     0.454 HD
ATOM     72  HN2 NHH A   8      29.363   1.148  -9.705  0.00  0.00     0.454 HD
ENDBRANCH  64  68
ENDBRANCH  62  64
ENDBRANCH  48  60
ENDBRANCH  46  48
ENDBRANCH  42  44
ENDBRANCH  40  42
ENDBRANCH   1  38
TORSDOF 21
ENDMDL
MODEL 6
REMARK VINA RESULT:     -10.5      2.020      3.535
REMARK  21 active torsions:
REMARK  status: ('A' for Active; 'I' for Inactive)
REMARK    1  A    between atoms: CA_2  and  C_3 
REMARK       I    between atoms: C_3  and  N_10 
REMARK    2  A    between atoms: CA_11  and  N_10 
REMARK    3  A    between atoms: CA_11  and  C_12 
REMARK       I    between atoms: C_12  and  N_16 
REMARK    4  A    between atoms: CA_17  and  N_16 
REMARK    5  A    between atoms: CA_17  and  CB_20 
REMARK    6  A    between atoms: CA_17  and  C_18 
REMARK       I    between atoms: C_18  and  N_28 
REMARK    7  A    between atoms: CB_20  and  CG_21 
REMARK    8  A    between atoms: CA_29  and  N_28 
REMARK    9  A    between atoms: CA_29  and  CB_32 
REMARK   10  A    between atoms: CA_29  and  C_30 
REMARK       I    between atoms: C_30  and  N_40 
REMARK   11  A    between atoms: CB_32  and  CG_33 
REMARK   12  A    between atoms: CA_41  and  N_40 
REMARK   13  A    between atoms: CA_41  and  C_42 
REMARK       I    between atoms: C_42  and  N_46 
REMARK   14  A    between atoms: CA_47  and  N_46 
REMARK   15  A    between atoms: CA_47  and  CB_50 
REMARK   16  A    between atoms: CA_47  and  C_48 
REMARK       I    between atoms: C_48  and  N_62 
REMARK   17  A    between atoms: CB_50  and  CG_51 
REMARK   18  A    between atoms: CA_63  and  N_62 
REMARK   19  A    between atoms: CA_63  and  CB_66 
REMARK   20  A    between atoms: CA_63  and  C_64 
REMARK       I    between atoms: C_64  and  N_70 
REMARK   21  A    between atoms: CB_66  and  OG_67 
ROOT
ATOM      1  CA  HIS A   4      34.892   3.264 -11.328  0.00  0.00     0.225 C 
ENDROOT
BRANCH   1   2
ATOM      2  N   HIS A   4      35.974   2.299 -11.541  0.00  0.00    -0.262 N 
ATOM      3  HN  HIS A   4      36.104   1.998 -12.495  0.00  0.00     0.189 HD
ATOM      4  C   PHE A   3      36.726   1.712 -10.595  0.00  0.00     0.206 C 
ATOM      5  O   PHE A   3      36.681   2.004  -9.403  0.00  0.00    -0.394 OA
BRANCH   4   6
ATOM      6  CA  PHE A   3      37.629   0.565 -11.051  0.00  0.00     0.223 C 
BRANCH   6   7
ATOM      7  N   PHE A   3      36.880  -0.245 -12.005  0.00  0.00    -0.262 N 
ATOM      8  HN  PHE A   3      36.356   0.255 -12.710  0.00  0.00     0.189 HD
ATOM      9  C   ALA A   2      36.700  -1.566 -11.883  0.00  0.00     0.204 C 
ATOM     10  O   ALA A   2      37.262  -2.247 -11.024  0.00  0.00    -0.394 OA
BRANCH   9  11
ATOM     11  CA  ALA A   2      35.753  -2.227 -12.884  0.00  0.00     0.208 C 
ATOM     12  CB  ALA A   2      35.320  -1.231 -13.965  0.00  0.00     0.059 C 
BRANCH  11  13
ATOM     13  N   ALA A   2      34.584  -2.711 -12.163  0.00  0.00    -0.261 N 
ATOM     14  HN  ALA A   2      34.129  -2.030 -11.570  0.00  0.00     0.189 HD
ATOM     15  C   PRO A   1      34.153  -3.978 -12.177  0.00  0.00     0.241 C 
ATOM     16  O   PRO A   1      34.671  -4.869 -12.853  0.00  0.00    -0.390 OA
BRANCH  15  17
ATOM     17  CA  PRO A   1      32.940  -4.317 -11.310  0.00  0.00     0.309 C 
ATOM     18  CB  PRO A   1      31.844  -5.041 -12.108  0.00  0.00     0.098 C 
ATOM     19  CG  PRO A   1      30.829  -3.941 -12.416  0.00  0.00     0.074 C 
ATOM     20  CD  PRO A   1      30.942  -3.082 -11.162  0.00  0.00     0.280 C 
ATOM     21  N   PRO A   1      32.370  -3.053 -10.800  0.00  0.00    -0.414 N 
ATOM     22  H1  PRO A   1      32.522  -2.934  -9.807  0.00  0.00     0.369 HD
ATOM     23  H2  PRO A   1      32.853  -2.321 -11.317  0.00  0.00     0.369 HD
ENDBRANCH  15  17
ENDBRANCH  11  13
ENDBRANCH   9  11
ENDBRANCH   6   7
BRANCH   6  24
ATOM     24  CB  PHE A   3      38.952   1.049 -11.669  0.00  0.00     0.116 C 
BRANCH  24  25
ATOM     25  CG  PHE A   3      39.663  -0.008 -12.493  0.00  0.00    -0.039 A 
ATOM     26  CD1 PHE A   3      39.551  -0.011 -13.899  0.00  0.00    -0.004 A 
ATOM     27  CE1 PHE A   3      40.230  -0.978 -14.658  0.00  0.00    -0.009 A 
ATOM     28  CZ  PHE A   3      41.019  -1.950 -14.018  0.00  0.00    -0.013 A 
ATOM     29  CE2 PHE A   3      41.131  -1.951 -12.617  0.00  0.00    -0.009 A 
ATOM     30  CD2 PHE A   3      40.455  -0.981 -11.855  0.00  0.00    -0.004 A 
ENDBRANCH  24  25
ENDBRANCH   6  24
ENDBRANCH   4   6
ENDBRANCH   1   2
BRANCH   1  31
ATOM     31  CB  HIS A   4      35.371   4.706 -11.612  0.00  0.00     0.141 C 
BRANCH  31  32
ATOM     32  CG  HIS A   4      34.375   5.791 -11.263  0.00  0.00     0.056 A 
ATOM     33  ND1 HIS A   4      33.695   6.581 -12.160  0.00  0.00    -0.262 N 
ATOM     34  CE1 HIS A   4      32.948   7.453 -11.461  0.00  0.00     0.202 A 
ATOM     35  HD1 HIS A   4      33.742   6.515 -13.168  0.00  0.00     0.239 HD
ATOM     36  NE2 HIS A   4      33.118   7.276 -10.140  0.00  0.00    -0.344 NA
ATOM     37  CD2 HIS A   4      34.013   6.212 -10.010  0.00  0.00     0.005 A 
ENDBRANCH  31  32
ENDBRANCH   1  31
BRANCH   1  38
ATOM     38  C   HIS A   4      33.601   2.900 -12.084  0.00  0.00     0.206 C 
ATOM     39  O   HIS A   4      33.640   2.302 -13.159  0.00  0.00    -0.394 OA
ATOM     40  N   ALA A   5      32.447   3.243 -11.495  0.00  0.00    -0.264 N 
ATOM     41  HN  ALA A   5      32.471   3.732 -10.612  0.00  0.00     0.188 HD
BRANCH  40  42
ATOM     42  CA  ALA A   5      31.127   3.023 -12.067  0.00  0.00     0.208 C 
ATOM     43  CB  ALA A   5      30.155   2.541 -10.983  0.00  0.00     0.059 C 
BRANCH  42  44
ATOM     44  C   ALA A   5      30.682   4.327 -12.730  0.00  0.00     0.204 C 
ATOM     45  O   ALA A   5      31.420   4.914 -13.525  0.00  0.00    -0.394 OA
ATOM     46  N   TRP A   6      29.443   4.736 -12.423  0.00  0.00    -0.263 N 
ATOM     47  HN  TRP A   6      28.906   4.180 -11.774  0.00  0.00     0.188 HD
BRANCH  46  48
ATOM     48  CA  TRP A   6      28.727   5.838 -13.061  0.00  0.00     0.217 C 
BRANCH  48  49
ATOM     49  CB  TRP A   6      27.523   5.269 -13.829  0.00  0.00     0.084 C 
BRANCH  49  50
ATOM     50  CG  TRP A   6      27.070   3.918 -13.355  0.00  0.00    -0.042 A 
ATOM     51  CD1 TRP A   6      26.231   3.693 -12.318  0.00  0.00     0.096 A 
ATOM     52  NE1 TRP A   6      26.079   2.341 -12.125  0.00  0.00    -0.289 N 
ATOM     53  CE2 TRP A   6      26.803   1.610 -13.040  0.00  0.00     0.060 A 
ATOM     54  HE1 TRP A   6      25.574   1.954 -11.333  0.00  0.00     0.222 HD
ATOM     55  CD2 TRP A   6      27.463   2.595 -13.836  0.00  0.00    -0.021 A 
ATOM     56  CZ2 TRP A   6      26.973   0.233 -13.248  0.00  0.00     0.010 A 
ATOM     57  CE3 TRP A   6      28.319   2.122 -14.854  0.00  0.00    -0.021 A 
ATOM     58  CZ3 TRP A   6      28.503   0.741 -15.069  0.00  0.00    -0.028 A 
ATOM     59  CH2 TRP A   6      27.832  -0.201 -14.271  0.00  0.00    -0.024 A 
ENDBRANCH  49  50
ENDBRANCH  48  49
BRANCH  48  60
ATOM     60  C   TRP A   6      28.328   6.896 -12.021  0.00  0.00     0.205 C 
ATOM     61  O   TRP A   6      29.156   7.424 -11.279  0.00  0.00    -0.394 OA
ATOM     62  N   SER A   7      27.032   7.215 -11.998  0.00  0.00    -0.257 N 
ATOM     63  HN  SER A   7      26.439   6.767 -12.687  0.00  0.00     0.189 HD
BRANCH  62  64
ATOM     64  CA  SER A   7      26.438   8.259 -11.180  0.00  0.00     0.295 C 
BRANCH  64  65
ATOM     65  CB  SER A   7      25.197   8.828 -11.895  0.00  0.00     0.212 C 
BRANCH  65  66
ATOM     66  OG  SER A   7      24.546   9.825 -11.118  0.00  0.00    -0.390 OA
ATOM     67  HG  SER A   7      23.614   9.593 -11.048  0.00  0.00     0.210 HD
ENDBRANCH  65  66
ENDBRANCH  64  65
BRANCH  64  68
ATOM     68  C   SER A   7      26.111   7.673  -9.799  0.00  0.00     0.392 C 
ATOM     69  O   SER A   7      24.984   7.260  -9.548  0.00  0.00    -0.295 OA
ATOM     70  N   NHH A   8      27.060   7.731  -8.862  0.00  0.00    -0.205 N 
ATOM     71  HN1 NHH A   8      27.987   8.048  -9.132  0.00  0.00     0.454 HD
ATOM     72  HN2 NHH A   8      26.872   7.388  -7.932  0.00  0.00     0.454 HD
ENDBRANCH  64  68
ENDBRANCH  62  64
ENDBRANCH  48  60
ENDBRANCH  46  48
ENDBRANCH  42  44
ENDBRANCH  40  42
ENDBRANCH   1  38
TORSDOF 21
ENDMDL
MODEL 7
REMARK VINA RESULT:     -10.5      1.785      2.494
REMARK  21 active torsions:
REMARK  status: ('A' for Active; 'I' for Inactive)
REMARK    1  A    between atoms: CA_2  and  C_3 
REMARK       I    between atoms: C_3  and  N_10 
REMARK    2  A    between atoms: CA_11  and  N_10 
REMARK    3  A    between atoms: CA_11  and  C_12 
REMARK       I    between atoms: C_12  and  N_16 
REMARK    4  A    between atoms: CA_17  and  N_16 
REMARK    5  A    between atoms: CA_17  and  CB_20 
REMARK    6  A    between atoms: CA_17  and  C_18 
REMARK       I    between atoms: C_18  and  N_28 
REMARK    7  A    between atoms: CB_20  and  CG_21 
REMARK    8  A    between atoms: CA_29  and  N_28 
REMARK    9  A    between atoms: CA_29  and  CB_32 
REMARK   10  A    between atoms: CA_29  and  C_30 
REMARK       I    between atoms: C_30  and  N_40 
REMARK   11  A    between atoms: CB_32  and  CG_33 
REMARK   12  A    between atoms: CA_41  and  N_40 
REMARK   13  A    between atoms: CA_41  and  C_42 
REMARK       I    between atoms: C_42  and  N_46 
REMARK   14  A    between atoms: CA_47  and  N_46 
REMARK   15  A    between atoms: CA_47  and  CB_50 
REMARK   16  A    between atoms: CA_47  and  C_48 
REMARK       I    between atoms: C_48  and  N_62 
REMARK   17  A    between atoms: CB_50  and  CG_51 
REMARK   18  A    between atoms: CA_63  and  N_62 
REMARK   19  A    between atoms: CA_63  and  CB_66 
REMARK   20  A    between atoms: CA_63  and  C_64 
REMARK       I    between atoms: C_64  and  N_70 
REMARK   21  A    between atoms: CB_66  and  OG_67 
ROOT
ATOM      1  CA  HIS A   4      34.881   3.528 -11.522  0.00  0.00     0.225 C 
ENDROOT
BRANCH   1   2
ATOM      2  N   HIS A   4      35.922   2.516 -11.717  0.00  0.00    -0.262 N 
ATOM      3  HN  HIS A   4      36.077   2.231 -12.672  0.00  0.00     0.189 HD
ATOM      4  C   PHE A   3      36.605   1.869 -10.758  0.00  0.00     0.206 C 
ATOM      5  O   PHE A   3      36.527   2.135  -9.561  0.00  0.00    -0.394 OA
BRANCH   4   6
ATOM      6  CA  PHE A   3      37.469   0.690 -11.206  0.00  0.00     0.223 C 
BRANCH   6   7
ATOM      7  N   PHE A   3      36.719  -0.062 -12.205  0.00  0.00    -0.262 N 
ATOM      8  HN  PHE A   3      36.252   0.477 -12.922  0.00  0.00     0.189 HD
ATOM      9  C   ALA A   2      36.464  -1.374 -12.116  0.00  0.00     0.204 C 
ATOM     10  O   ALA A   2      36.953  -2.098 -11.249  0.00  0.00    -0.394 OA
BRANCH   9  11
ATOM     11  CA  ALA A   2      35.525  -1.965 -13.168  0.00  0.00     0.208 C 
ATOM     12  CB  ALA A   2      35.519  -1.108 -14.438  0.00  0.00     0.059 C 
BRANCH  11  13
ATOM     13  N   ALA A   2      34.183  -2.025 -12.607  0.00  0.00    -0.261 N 
ATOM     14  HN  ALA A   2      33.696  -1.141 -12.555  0.00  0.00     0.189 HD
ATOM     15  C   PRO A   1      33.620  -3.128 -12.100  0.00  0.00     0.241 C 
ATOM     16  O   PRO A   1      34.161  -4.236 -12.104  0.00  0.00    -0.390 OA
BRANCH  15  17
ATOM     17  CA  PRO A   1      32.221  -2.990 -11.497  0.00  0.00     0.309 C 
ATOM     18  CB  PRO A   1      31.796  -4.251 -10.729  0.00  0.00     0.098 C 
ATOM     19  CG  PRO A   1      30.881  -4.985 -11.708  0.00  0.00     0.074 C 
ATOM     20  CD  PRO A   1      30.217  -3.812 -12.420  0.00  0.00     0.280 C 
ATOM     21  N   PRO A   1      31.262  -2.788 -12.602  0.00  0.00    -0.414 N 
ATOM     22  H1  PRO A   1      30.890  -1.848 -12.623  0.00  0.00     0.369 HD
ATOM     23  H2  PRO A   1      31.796  -2.972 -13.450  0.00  0.00     0.369 HD
ENDBRANCH  15  17
ENDBRANCH  11  13
ENDBRANCH   9  11
ENDBRANCH   6   7
BRANCH   6  24
ATOM     24  CB  PHE A   3      38.836   1.122 -11.764  0.00  0.00     0.116 C 
BRANCH  24  25
ATOM     25  CG  PHE A   3      39.558   0.026 -12.526  0.00  0.00    -0.039 A 
ATOM     26  CD1 PHE A   3      39.502  -0.020 -13.933  0.00  0.00    -0.004 A 
ATOM     27  CE1 PHE A   3      40.191  -1.024 -14.634  0.00  0.00    -0.009 A 
ATOM     28  CZ  PHE A   3      40.935  -1.989 -13.933  0.00  0.00    -0.013 A 
ATOM     29  CE2 PHE A   3      40.991  -1.947 -12.529  0.00  0.00    -0.009 A 
ATOM     30  CD2 PHE A   3      40.305  -0.941 -11.826  0.00  0.00    -0.004 A 
ENDBRANCH  24  25
ENDBRANCH   6  24
ENDBRANCH   4   6
ENDBRANCH   1   2
BRANCH   1  31
ATOM     31  CB  HIS A   4      35.451   4.952 -11.711  0.00  0.00     0.141 C 
BRANCH  31  32
ATOM     32  CG  HIS A   4      34.640   6.056 -11.067  0.00  0.00     0.056 A 
ATOM     33  ND1 HIS A   4      33.950   5.964  -9.880  0.00  0.00    -0.262 N 
ATOM     34  CE1 HIS A   4      33.319   7.133  -9.677  0.00  0.00     0.202 A 
ATOM     35  HD1 HIS A   4      33.925   5.161  -9.266  0.00  0.00     0.239 HD
ATOM     36  NE2 HIS A   4      33.557   7.987 -10.687  0.00  0.00    -0.344 NA
ATOM     37  CD2 HIS A   4      34.407   7.312 -11.565  0.00  0.00     0.005 A 
ENDBRANCH  31  32
ENDBRANCH   1  31
BRANCH   1  38
ATOM     38  C   HIS A   4      33.621   3.268 -12.367  0.00  0.00     0.206 C 
ATOM     39  O   HIS A   4      33.511   3.726 -13.503  0.00  0.00    -0.394 OA
ATOM     40  N   ALA A   5      32.675   2.499 -11.808  0.00  0.00    -0.264 N 
ATOM     41  HN  ALA A   5      32.816   2.147 -10.873  0.00  0.00     0.188 HD
BRANCH  40  42
ATOM     42  CA  ALA A   5      31.400   2.172 -12.429  0.00  0.00     0.208 C 
ATOM     43  CB  ALA A   5      31.108   0.674 -12.280  0.00  0.00     0.059 C 
BRANCH  42  44
ATOM     44  C   ALA A   5      30.329   3.055 -11.786  0.00  0.00     0.204 C 
ATOM     45  O   ALA A   5      30.511   3.559 -10.675  0.00  0.00    -0.394 OA
ATOM     46  N   TRP A   6      29.234   3.268 -12.530  0.00  0.00    -0.263 N 
ATOM     47  HN  TRP A   6      29.182   2.825 -13.436  0.00  0.00     0.188 HD
BRANCH  46  48
ATOM     48  CA  TRP A   6      28.164   4.212 -12.221  0.00  0.00     0.217 C 
BRANCH  48  49
ATOM     49  CB  TRP A   6      27.871   5.057 -13.471  0.00  0.00     0.084 C 
BRANCH  49  50
ATOM     50  CG  TRP A   6      26.945   6.215 -13.232  0.00  0.00    -0.042 A 
ATOM     51  CD1 TRP A   6      25.842   6.499 -13.960  0.00  0.00     0.096 A 
ATOM     52  NE1 TRP A   6      25.266   7.660 -13.503  0.00  0.00    -0.289 N 
ATOM     53  CE2 TRP A   6      25.959   8.188 -12.437  0.00  0.00     0.060 A 
ATOM     54  HE1 TRP A   6      24.488   8.108 -13.977  0.00  0.00     0.222 HD
ATOM     55  CD2 TRP A   6      27.052   7.290 -12.247  0.00  0.00    -0.021 A 
ATOM     56  CZ2 TRP A   6      25.775   9.332 -11.647  0.00  0.00     0.010 A 
ATOM     57  CE3 TRP A   6      27.968   7.609 -11.220  0.00  0.00    -0.021 A 
ATOM     58  CZ3 TRP A   6      27.797   8.759 -10.424  0.00  0.00    -0.028 A 
ATOM     59  CH2 TRP A   6      26.705   9.618 -10.634  0.00  0.00    -0.024 A 
ENDBRANCH  49  50
ENDBRANCH  48  49
BRANCH  48  60
ATOM     60  C   TRP A   6      26.926   3.471 -11.695  0.00  0.00     0.205 C 
ATOM     61  O   TRP A   6      26.156   3.983 -10.883  0.00  0.00    -0.394 OA
ATOM     62  N   SER A   7      26.735   2.249 -12.198  0.00  0.00    -0.257 N 
ATOM     63  HN  SER A   7      27.392   1.938 -12.904  0.00  0.00     0.189 HD
BRANCH  62  64
ATOM     64  CA  SER A   7      25.582   1.403 -11.935  0.00  0.00     0.295 C 
BRANCH  64  65
ATOM     65  CB  SER A   7      24.691   1.345 -13.191  0.00  0.00     0.212 C 
BRANCH  65  66
ATOM     66  OG  SER A   7      25.281   0.571 -14.226  0.00  0.00    -0.390 OA
ATOM     67  HG  SER A   7      26.221   0.778 -14.262  0.00  0.00     0.210 HD
ENDBRANCH  65  66
ENDBRANCH  64  65
BRANCH  64  68
ATOM     68  C   SER A   7      26.081   0.018 -11.497  0.00  0.00     0.392 C 
ATOM     69  O   SER A   7      25.436  -0.653 -10.699  0.00  0.00    -0.295 OA
ATOM     70  N   NHH A   8      27.281  -0.373 -11.930  0.00  0.00    -0.205 N 
ATOM     71  HN1 NHH A   8      27.757   0.203 -12.619  0.00  0.00     0.454 HD
ATOM     72  HN2 NHH A   8      27.659  -1.261 -11.637  0.00  0.00     0.454 HD
ENDBRANCH  64  68
ENDBRANCH  62  64
ENDBRANCH  48  60
ENDBRANCH  46  48
ENDBRANCH  42  44
ENDBRANCH  40  42
ENDBRANCH   1  38
TORSDOF 21
ENDMDL
MODEL 8
REMARK VINA RESULT:     -10.5      3.009      6.918
REMARK  21 active torsions:
REMARK  status: ('A' for Active; 'I' for Inactive)
REMARK    1  A    between atoms: CA_2  and  C_3 
REMARK       I    between atoms: C_3  and  N_10 
REMARK    2  A    between atoms: CA_11  and  N_10 
REMARK    3  A    between atoms: CA_11  and  C_12 
REMARK       I    between atoms: C_12  and  N_16 
REMARK    4  A    between atoms: CA_17  and  N_16 
REMARK    5  A    between atoms: CA_17  and  CB_20 
REMARK    6  A    between atoms: CA_17  and  C_18 
REMARK       I    between atoms: C_18  and  N_28 
REMARK    7  A    between atoms: CB_20  and  CG_21 
REMARK    8  A    between atoms: CA_29  and  N_28 
REMARK    9  A    between atoms: CA_29  and  CB_32 
REMARK   10  A    between atoms: CA_29  and  C_30 
REMARK       I    between atoms: C_30  and  N_40 
REMARK   11  A    between atoms: CB_32  and  CG_33 
REMARK   12  A    between atoms: CA_41  and  N_40 
REMARK   13  A    between atoms: CA_41  and  C_42 
REMARK       I    between atoms: C_42  and  N_46 
REMARK   14  A    between atoms: CA_47  and  N_46 
REMARK   15  A    between atoms: CA_47  and  CB_50 
REMARK   16  A    between atoms: CA_47  and  C_48 
REMARK       I    between atoms: C_48  and  N_62 
REMARK   17  A    between atoms: CB_50  and  CG_51 
REMARK   18  A    between atoms: CA_63  and  N_62 
REMARK   19  A    between atoms: CA_63  and  CB_66 
REMARK   20  A    between atoms: CA_63  and  C_64 
REMARK       I    between atoms: C_64  and  N_70 
REMARK   21  A    between atoms: CB_66  and  OG_67 
ROOT
ATOM      1  CA  HIS A   4      31.940   2.722 -12.262  0.00  0.00     0.225 C 
ENDROOT
BRANCH   1   2
ATOM      2  N   HIS A   4      32.720   1.487 -12.366  0.00  0.00    -0.262 N 
ATOM      3  HN  HIS A   4      32.283   0.665 -11.977  0.00  0.00     0.189 HD
ATOM      4  C   PHE A   3      33.977   1.364 -12.826  0.00  0.00     0.206 C 
ATOM      5  O   PHE A   3      34.610   2.281 -13.344  0.00  0.00    -0.394 OA
BRANCH   4   6
ATOM      6  CA  PHE A   3      34.657   0.012 -12.613  0.00  0.00     0.223 C 
BRANCH   6   7
ATOM      7  N   PHE A   3      36.094   0.201 -12.777  0.00  0.00    -0.262 N 
ATOM      8  HN  PHE A   3      36.506   0.984 -12.287  0.00  0.00     0.189 HD
ATOM      9  C   ALA A   2      36.839  -0.469 -13.665  0.00  0.00     0.204 C 
ATOM     10  O   ALA A   2      36.406  -1.407 -14.337  0.00  0.00    -0.394 OA
BRANCH   9  11
ATOM     11  CA  ALA A   2      38.295  -0.029 -13.814  0.00  0.00     0.208 C 
ATOM     12  CB  ALA A   2      39.085  -1.034 -14.659  0.00  0.00     0.059 C 
BRANCH  11  13
ATOM     13  N   ALA A   2      38.885   0.070 -12.486  0.00  0.00    -0.261 N 
ATOM     14  HN  ALA A   2      38.471  -0.527 -11.783  0.00  0.00     0.189 HD
ATOM     15  C   PRO A   1      39.847   0.936 -12.145  0.00  0.00     0.241 C 
ATOM     16  O   PRO A   1      40.381   1.713 -12.939  0.00  0.00    -0.390 OA
BRANCH  15  17
ATOM     17  CA  PRO A   1      40.304   0.939 -10.686  0.00  0.00     0.309 C 
ATOM     18  CB  PRO A   1      39.508  -0.060  -9.830  0.00  0.00     0.098 C 
ATOM     19  CG  PRO A   1      38.484   0.814  -9.106  0.00  0.00     0.074 C 
ATOM     20  CD  PRO A   1      39.285   2.095  -8.906  0.00  0.00     0.280 C 
ATOM     21  N   PRO A   1      40.077   2.290 -10.134  0.00  0.00    -0.414 N 
ATOM     22  H1  PRO A   1      40.940   2.789  -9.969  0.00  0.00     0.369 HD
ATOM     23  H2  PRO A   1      39.524   2.772 -10.841  0.00  0.00     0.369 HD
ENDBRANCH  15  17
ENDBRANCH  11  13
ENDBRANCH   9  11
ENDBRANCH   6   7
BRANCH   6  24
ATOM     24  CB  PHE A   3      34.344  -0.611 -11.242  0.00  0.00     0.116 C 
BRANCH  24  25
ATOM     25  CG  PHE A   3      33.734  -1.998 -11.327  0.00  0.00    -0.039 A 
ATOM     26  CD1 PHE A   3      34.418  -3.037 -11.991  0.00  0.00    -0.004 A 
ATOM     27  CE1 PHE A   3      33.859  -4.325 -12.047  0.00  0.00    -0.009 A 
ATOM     28  CZ  PHE A   3      32.615  -4.580 -11.443  0.00  0.00    -0.013 A 
ATOM     29  CE2 PHE A   3      31.931  -3.546 -10.783  0.00  0.00    -0.009 A 
ATOM     30  CD2 PHE A   3      32.490  -2.257 -10.722  0.00  0.00    -0.004 A 
ENDBRANCH  24  25
ENDBRANCH   6  24
ENDBRANCH   4   6
ENDBRANCH   1   2
BRANCH   1  31
ATOM     31  CB  HIS A   4      30.448   2.416 -11.999  0.00  0.00     0.141 C 
BRANCH  31  32
ATOM     32  CG  HIS A   4      29.746   1.658 -13.104  0.00  0.00     0.056 A 
ATOM     33  ND1 HIS A   4      29.317   2.188 -14.300  0.00  0.00    -0.262 N 
ATOM     34  CE1 HIS A   4      28.698   1.212 -14.986  0.00  0.00     0.202 A 
ATOM     35  HD1 HIS A   4      29.449   3.141 -14.611  0.00  0.00     0.239 HD
ATOM     36  NE2 HIS A   4      28.692   0.065 -14.287  0.00  0.00    -0.344 NA
ATOM     37  CD2 HIS A   4      29.369   0.340 -13.097  0.00  0.00     0.005 A 
ENDBRANCH  31  32
ENDBRANCH   1  31
BRANCH   1  38
ATOM     38  C   HIS A   4      32.533   3.728 -11.258  0.00  0.00     0.206 C 
ATOM     39  O   HIS A   4      32.408   3.565 -10.045  0.00  0.00    -0.394 OA
ATOM     40  N   ALA A   5      33.208   4.762 -11.778  0.00  0.00    -0.264 N 
ATOM     41  HN  ALA A   5      33.283   4.849 -12.781  0.00  0.00     0.188 HD
BRANCH  40  42
ATOM     42  CA  ALA A   5      33.807   5.837 -10.998  0.00  0.00     0.208 C 
ATOM     43  CB  ALA A   5      35.162   6.232 -11.597  0.00  0.00     0.059 C 
BRANCH  42  44
ATOM     44  C   ALA A   5      32.811   6.996 -10.961  0.00  0.00     0.204 C 
ATOM     45  O   ALA A   5      32.953   7.974 -11.700  0.00  0.00    -0.394 OA
ATOM     46  N   TRP A   6      31.776   6.841 -10.122  0.00  0.00    -0.263 N 
ATOM     47  HN  TRP A   6      31.736   5.998  -9.568  0.00  0.00     0.188 HD
BRANCH  46  48
ATOM     48  CA  TRP A   6      30.607   7.712 -10.042  0.00  0.00     0.217 C 
BRANCH  48  49
ATOM     49  CB  TRP A   6      29.339   6.844 -10.056  0.00  0.00     0.084 C 
BRANCH  49  50
ATOM     50  CG  TRP A   6      28.563   6.904 -11.340  0.00  0.00    -0.042 A 
ATOM     51  CD1 TRP A   6      27.281   7.316 -11.462  0.00  0.00     0.096 A 
ATOM     52  NE1 TRP A   6      26.870   7.185 -12.767  0.00  0.00    -0.289 N 
ATOM     53  CE2 TRP A   6      27.873   6.691 -13.571  0.00  0.00     0.060 A 
ATOM     54  HE1 TRP A   6      25.909   7.339 -13.056  0.00  0.00     0.222 HD
ATOM     55  CD2 TRP A   6      28.970   6.487 -12.681  0.00  0.00    -0.021 A 
ATOM     56  CZ2 TRP A   6      27.942   6.386 -14.938  0.00  0.00     0.010 A 
ATOM     57  CE3 TRP A   6      30.150   5.943 -13.237  0.00  0.00    -0.021 A 
ATOM     58  CZ3 TRP A   6      30.229   5.627 -14.608  0.00  0.00    -0.028 A 
ATOM     59  CH2 TRP A   6      29.131   5.848 -15.458  0.00  0.00    -0.024 A 
ENDBRANCH  49  50
ENDBRANCH  48  49
BRANCH  48  60
ATOM     60  C   TRP A   6      30.696   8.621  -8.806  0.00  0.00     0.205 C 
ATOM     61  O   TRP A   6      30.064   9.673  -8.725  0.00  0.00    -0.394 OA
ATOM     62  N   SER A   7      31.485   8.176  -7.825  0.00  0.00    -0.257 N 
ATOM     63  HN  SER A   7      31.918   7.270  -7.962  0.00  0.00     0.189 HD
BRANCH  62  64
ATOM     64  CA  SER A   7      31.644   8.804  -6.523  0.00  0.00     0.295 C 
BRANCH  64  65
ATOM     65  CB  SER A   7      30.510   8.341  -5.588  0.00  0.00     0.212 C 
BRANCH  65  66
ATOM     66  OG  SER A   7      30.363   6.927  -5.591  0.00  0.00    -0.390 OA
ATOM     67  HG  SER A   7      30.755   6.580  -4.783  0.00  0.00     0.210 HD
ENDBRANCH  65  66
ENDBRANCH  64  65
BRANCH  64  68
ATOM     68  C   SER A   7      33.039   8.462  -5.981  0.00  0.00     0.392 C 
ATOM     69  O   SER A   7      34.033   8.611  -6.682  0.00  0.00    -0.295 OA
ATOM     70  N   NHH A   8      33.112   7.901  -4.772  0.00  0.00    -0.205 N 
ATOM     71  HN1 NHH A   8      32.262   7.835  -4.218  0.00  0.00     0.454 HD
ATOM     72  HN2 NHH A   8      34.007   7.630  -4.395  0.00  0.00     0.454 HD
ENDBRANCH  64  68
ENDBRANCH  62  64
ENDBRANCH  48  60
ENDBRANCH  46  48
ENDBRANCH  42  44
ENDBRANCH  40  42
ENDBRANCH   1  38
TORSDOF 21
ENDMDL
MODEL 9
REMARK VINA RESULT:     -10.5      2.139     10.285
REMARK  21 active torsions:
REMARK  status: ('A' for Active; 'I' for Inactive)
REMARK    1  A    between atoms: CA_2  and  C_3 
REMARK       I    between atoms: C_3  and  N_10 
REMARK    2  A    between atoms: CA_11  and  N_10 
REMARK    3  A    between atoms: CA_11  and  C_12 
REMARK       I    between atoms: C_12  and  N_16 
REMARK    4  A    between atoms: CA_17  and  N_16 
REMARK    5  A    between atoms: CA_17  and  CB_20 
REMARK    6  A    between atoms: CA_17  and  C_18 
REMARK       I    between atoms: C_18  and  N_28 
REMARK    7  A    between atoms: CB_20  and  CG_21 
REMARK    8  A    between atoms: CA_29  and  N_28 
REMARK    9  A    between atoms: CA_29  and  CB_32 
REMARK   10  A    between atoms: CA_29  and  C_30 
REMARK       I    between atoms: C_30  and  N_40 
REMARK   11  A    between atoms: CB_32  and  CG_33 
REMARK   12  A    between atoms: CA_41  and  N_40 
REMARK   13  A    between atoms: CA_41  and  C_42 
REMARK       I    between atoms: C_42  and  N_46 
REMARK   14  A    between atoms: CA_47  and  N_46 
REMARK   15  A    between atoms: CA_47  and  CB_50 
REMARK   16  A    between atoms: CA_47  and  C_48 
REMARK       I    between atoms: C_48  and  N_62 
REMARK   17  A    between atoms: CB_50  and  CG_51 
REMARK   18  A    between atoms: CA_63  and  N_62 
REMARK   19  A    between atoms: CA_63  and  CB_66 
REMARK   20  A    between atoms: CA_63  and  C_64 
REMARK       I    between atoms: C_64  and  N_70 
REMARK   21  A    between atoms: CB_66  and  OG_67 
ROOT
ATOM      1  CA  HIS A   4      31.586  -1.037 -10.393  0.00  0.00     0.225 C 
ENDROOT
BRANCH   1   2
ATOM      2  N   HIS A   4      30.468  -1.035 -11.340  0.00  0.00    -0.262 N 
ATOM      3  HN  HIS A   4      30.650  -1.480 -12.226  0.00  0.00     0.189 HD
ATOM      4  C   PHE A   3      29.282  -0.422 -11.184  0.00  0.00     0.206 C 
ATOM      5  O   PHE A   3      28.928   0.135 -10.148  0.00  0.00    -0.394 OA
BRANCH   4   6
ATOM      6  CA  PHE A   3      28.371  -0.367 -12.411  0.00  0.00     0.223 C 
BRANCH   6   7
ATOM      7  N   PHE A   3      27.448   0.748 -12.235  0.00  0.00    -0.262 N 
ATOM      8  HN  PHE A   3      27.849   1.625 -11.932  0.00  0.00     0.189 HD
ATOM      9  C   ALA A   2      26.115   0.625 -12.267  0.00  0.00     0.204 C 
ATOM     10  O   ALA A   2      25.541  -0.419 -12.581  0.00  0.00    -0.394 OA
BRANCH   9  11
ATOM     11  CA  ALA A   2      25.301   1.866 -11.902  0.00  0.00     0.208 C 
ATOM     12  CB  ALA A   2      23.807   1.535 -11.825  0.00  0.00     0.059 C 
BRANCH  11  13
ATOM     13  N   ALA A   2      25.528   2.882 -12.921  0.00  0.00    -0.261 N 
ATOM     14  HN  ALA A   2      25.449   2.562 -13.876  0.00  0.00     0.189 HD
ATOM     15  C   PRO A   1      25.904   4.142 -12.667  0.00  0.00     0.241 C 
ATOM     16  O   PRO A   1      26.045   4.597 -11.530  0.00  0.00    -0.390 OA
BRANCH  15  17
ATOM     17  CA  PRO A   1      26.154   5.055 -13.867  0.00  0.00     0.309 C 
ATOM     18  CB  PRO A   1      26.821   6.378 -13.456  0.00  0.00     0.098 C 
ATOM     19  CG  PRO A   1      25.664   7.377 -13.428  0.00  0.00     0.074 C 
ATOM     20  CD  PRO A   1      24.795   6.847 -14.564  0.00  0.00     0.280 C 
ATOM     21  N   PRO A   1      24.850   5.377 -14.481  0.00  0.00    -0.414 N 
ATOM     22  H1  PRO A   1      24.726   4.929 -15.380  0.00  0.00     0.369 HD
ATOM     23  H2  PRO A   1      24.157   5.032 -13.820  0.00  0.00     0.369 HD
ENDBRANCH  15  17
ENDBRANCH  11  13
ENDBRANCH   9  11
ENDBRANCH   6   7
BRANCH   6  24
ATOM     24  CB  PHE A   3      29.147  -0.228 -13.731  0.00  0.00     0.116 C 
BRANCH  24  25
ATOM     25  CG  PHE A   3      29.154   1.183 -14.289  0.00  0.00    -0.039 A 
ATOM     26  CD1 PHE A   3      28.406   1.498 -15.442  0.00  0.00    -0.004 A 
ATOM     27  CE1 PHE A   3      28.398   2.811 -15.941  0.00  0.00    -0.009 A 
ATOM     28  CZ  PHE A   3      29.138   3.815 -15.293  0.00  0.00    -0.013 A 
ATOM     29  CE2 PHE A   3      29.886   3.505 -14.144  0.00  0.00    -0.009 A 
ATOM     30  CD2 PHE A   3      29.893   2.192 -13.641  0.00  0.00    -0.004 A 
ENDBRANCH  24  25
ENDBRANCH   6  24
ENDBRANCH   4   6
ENDBRANCH   1   2
BRANCH   1  31
ATOM     31  CB  HIS A   4      31.753  -2.425  -9.735  0.00  0.00     0.141 C 
BRANCH  31  32
ATOM     32  CG  HIS A   4      31.730  -3.595 -10.694  0.00  0.00     0.056 A 
ATOM     33  ND1 HIS A   4      32.830  -4.198 -11.260  0.00  0.00    -0.262 N 
ATOM     34  CE1 HIS A   4      32.393  -5.161 -12.089  0.00  0.00     0.202 A 
ATOM     35  HD1 HIS A   4      33.796  -3.962 -11.079  0.00  0.00     0.239 HD
ATOM     36  NE2 HIS A   4      31.051  -5.209 -12.102  0.00  0.00    -0.344 NA
ATOM     37  CD2 HIS A   4      30.625  -4.226 -11.206  0.00  0.00     0.005 A 
ENDBRANCH  31  32
ENDBRANCH   1  31
BRANCH   1  38
ATOM     38  C   HIS A   4      32.894  -0.500 -11.003  0.00  0.00     0.206 C 
ATOM     39  O   HIS A   4      33.001   0.678 -11.341  0.00  0.00    -0.394 OA
ATOM     40  N   ALA A   5      33.904  -1.374 -11.114  0.00  0.00    -0.264 N 
ATOM     41  HN  ALA A   5      33.763  -2.330 -10.820  0.00  0.00     0.188 HD
BRANCH  40  42
ATOM     42  CA  ALA A   5      35.202  -1.070 -11.699  0.00  0.00     0.208 C 
ATOM     43  CB  ALA A   5      35.038  -0.674 -13.171  0.00  0.00     0.059 C 
BRANCH  42  44
ATOM     44  C   ALA A   5      35.848   0.028 -10.855  0.00  0.00     0.204 C 
ATOM     45  O   ALA A   5      36.107  -0.162  -9.664  0.00  0.00    -0.394 OA
ATOM     46  N   TRP A   6      36.147   1.159 -11.510  0.00  0.00    -0.263 N 
ATOM     47  HN  TRP A   6      35.912   1.216 -12.491  0.00  0.00     0.188 HD
BRANCH  46  48
ATOM     48  CA  TRP A   6      36.927   2.272 -10.977  0.00  0.00     0.217 C 
BRANCH  48  49
ATOM     49  CB  TRP A   6      38.292   2.304 -11.682  0.00  0.00     0.084 C 
BRANCH  49  50
ATOM     50  CG  TRP A   6      39.100   1.048 -11.523  0.00  0.00    -0.042 A 
ATOM     51  CD1 TRP A   6      39.618   0.593 -10.360  0.00  0.00     0.096 A 
ATOM     52  NE1 TRP A   6      40.349  -0.549 -10.589  0.00  0.00    -0.289 N 
ATOM     53  CE2 TRP A   6      40.334  -0.906 -11.919  0.00  0.00     0.060 A 
ATOM     54  HE1 TRP A   6      40.909  -0.993  -9.869  0.00  0.00     0.222 HD
ATOM     55  CD2 TRP A   6      39.551   0.108 -12.548  0.00  0.00    -0.021 A 
ATOM     56  CZ2 TRP A   6      40.917  -1.962 -12.634  0.00  0.00     0.010 A 
ATOM     57  CE3 TRP A   6      39.392   0.014 -13.948  0.00  0.00    -0.021 A 
ATOM     58  CZ3 TRP A   6      39.978  -1.040 -14.678  0.00  0.00    -0.028 A 
ATOM     59  CH2 TRP A   6      40.737  -2.026 -14.025  0.00  0.00    -0.024 A 
ENDBRANCH  49  50
ENDBRANCH  48  49
BRANCH  48  60
ATOM     60  C   TRP A   6      36.151   3.590 -11.115  0.00  0.00     0.205 C 
ATOM     61  O   TRP A   6      36.709   4.647 -11.407  0.00  0.00    -0.394 OA
ATOM     62  N   SER A   7      34.833   3.500 -10.919  0.00  0.00    -0.257 N 
ATOM     63  HN  SER A   7      34.460   2.576 -10.740  0.00  0.00     0.189 HD
BRANCH  62  64
ATOM     64  CA  SER A   7      33.881   4.584 -11.100  0.00  0.00     0.295 C 
BRANCH  64  65
ATOM     65  CB  SER A   7      33.273   4.503 -12.513  0.00  0.00     0.212 C 
BRANCH  65  66
ATOM     66  OG  SER A   7      33.108   3.159 -12.945  0.00  0.00    -0.390 OA
ATOM     67  HG  SER A   7      32.217   3.060 -13.296  0.00  0.00     0.210 HD
ENDBRANCH  65  66
ENDBRANCH  64  65
BRANCH  64  68
ATOM     68  C   SER A   7      32.821   4.495  -9.992  0.00  0.00     0.392 C 
ATOM     69  O   SER A   7      32.105   3.505  -9.893  0.00  0.00    -0.295 OA
ATOM     70  N   NHH A   8      32.641   5.569  -9.220  0.00  0.00    -0.205 N 
ATOM     71  HN1 NHH A   8      33.286   6.348  -9.319  0.00  0.00     0.454 HD
ATOM     72  HN2 NHH A   8      31.931   5.563  -8.504  0.00  0.00     0.454 HD
ENDBRANCH  64  68
ENDBRANCH  62  64
ENDBRANCH  48  60
ENDBRANCH  46  48
ENDBRANCH  42  44
ENDBRANCH  40  42
ENDBRANCH   1  38
TORSDOF 21
ENDMDL
