MODEL 1
REMARK VINA RESULT:     -11.3      0.000      0.000
REMARK  21 active torsions:
REMARK  status: ('A' for Active; 'I' for Inactive)
REMARK    1  A    between atoms: CA_2  and  C_3 
REMARK       I    between atoms: C_3  and  N_10 
REMARK    2  A    between atoms: CA_11  and  N_10 
REMARK    3  A    between atoms: CA_11  and  C_12 
REMARK       I    between atoms: C_12  and  N_16 
REMARK    4  A    between atoms: CA_17  and  N_16 
REMARK    5  A    between atoms: CA_17  and  CB_20 
REMARK    6  A    between atoms: CA_17  and  C_18 
REMARK       I    between atoms: C_18  and  N_28 
REMARK    7  A    between atoms: CB_20  and  CG_21 
REMARK    8  A    between atoms: CA_29  and  N_28 
REMARK    9  A    between atoms: CA_29  and  CB_32 
REMARK   10  A    between atoms: CA_29  and  C_30 
REMARK       I    between atoms: C_30  and  N_40 
REMARK   11  A    between atoms: CB_32  and  CG_33 
REMARK   12  A    between atoms: CA_41  and  N_40 
REMARK   13  A    between atoms: CA_41  and  CB_44 
REMARK   14  A    between atoms: CA_41  and  C_42 
REMARK       I    between atoms: C_42  and  N_48 
REMARK   15  A    between atoms: CB_44  and  OG_45 
REMARK   16  A    between atoms: CA_49  and  N_48 
REMARK   17  A    between atoms: CA_49  and  CB_52 
REMARK   18  A    between atoms: CA_49  and  C_50 
REMARK       I    between atoms: C_50  and  N_64 
REMARK   19  A    between atoms: CB_52  and  CG_53 
REMARK   20  A    between atoms: CA_65  and  N_64 
REMARK   21  A    between atoms: CA_65  and  C_66 
REMARK       I    between atoms: C_66  and  N_70 
ROOT
ATOM      1  CA  HIS A   4      34.899   3.500 -11.329  0.00  0.00     0.225 C 
ENDROOT
BRANCH   1   2
ATOM      2  N   HIS A   4      35.974   2.545 -11.590  0.00  0.00    -0.262 N 
ATOM      3  HN  HIS A   4      36.108   2.291 -12.557  0.00  0.00     0.189 HD
ATOM      4  C   PHE A   3      36.644   1.848 -10.659  0.00  0.00     0.206 C 
ATOM      5  O   PHE A   3      36.567   2.072  -9.453  0.00  0.00    -0.394 OA
BRANCH   4   6
ATOM      6  CA  PHE A   3      37.483   0.669 -11.157  0.00  0.00     0.223 C 
BRANCH   6   7
ATOM      7  N   PHE A   3      36.669  -0.108 -12.088  0.00  0.00    -0.262 N 
ATOM      8  HN  PHE A   3      36.131   0.414 -12.765  0.00  0.00     0.189 HD
ATOM      9  C   ALA A   2      36.489  -1.431 -12.001  0.00  0.00     0.204 C 
ATOM     10  O   ALA A   2      37.077  -2.139 -11.183  0.00  0.00    -0.394 OA
BRANCH   9  11
ATOM     11  CA  ALA A   2      35.508  -2.057 -12.993  0.00  0.00     0.208 C 
ATOM     12  CB  ALA A   2      34.954  -0.998 -13.952  0.00  0.00     0.059 C 
BRANCH  11  13
ATOM     13  N   ALA A   2      34.419  -2.669 -12.247  0.00  0.00    -0.261 N 
ATOM     14  HN  ALA A   2      33.914  -2.047 -11.630  0.00  0.00     0.189 HD
ATOM     15  C   PRO A   1      34.133  -3.977 -12.260  0.00  0.00     0.241 C 
ATOM     16  O   PRO A   1      34.723  -4.797 -12.966  0.00  0.00    -0.390 OA
BRANCH  15  17
ATOM     17  CA  PRO A   1      33.006  -4.461 -11.348  0.00  0.00     0.309 C 
ATOM     18  CB  PRO A   1      31.931  -5.243 -12.122  0.00  0.00     0.098 C 
ATOM     19  CG  PRO A   1      30.816  -4.218 -12.328  0.00  0.00     0.074 C 
ATOM     20  CD  PRO A   1      30.922  -3.410 -11.041  0.00  0.00     0.280 C 
ATOM     21  N   PRO A   1      32.360  -3.277 -10.745  0.00  0.00    -0.414 N 
ATOM     22  H1  PRO A   1      32.551  -3.194  -9.757  0.00  0.00     0.369 HD
ATOM     23  H2  PRO A   1      32.754  -2.481 -11.245  0.00  0.00     0.369 HD
ENDBRANCH  15  17
ENDBRANCH  11  13
ENDBRANCH   9  11
ENDBRANCH   6   7
BRANCH   6  24
ATOM     24  CB  PHE A   3      38.792   1.109 -11.837  0.00  0.00     0.116 C 
BRANCH  24  25
ATOM     25  CG  PHE A   3      39.578   0.030 -12.568  0.00  0.00    -0.039 A 
ATOM     26  CD1 PHE A   3      39.493  -0.056 -13.972  0.00  0.00    -0.004 A 
ATOM     27  CE1 PHE A   3      40.172  -1.073 -14.666  0.00  0.00    -0.009 A 
ATOM     28  CZ  PHE A   3      40.950  -2.007 -13.961  0.00  0.00    -0.013 A 
ATOM     29  CE2 PHE A   3      41.042  -1.928 -12.562  0.00  0.00    -0.009 A 
ATOM     30  CD2 PHE A   3      40.352  -0.918 -11.865  0.00  0.00    -0.004 A 
ENDBRANCH  24  25
ENDBRANCH   6  24
ENDBRANCH   4   6
ENDBRANCH   1   2
BRANCH   1  31
ATOM     31  CB  HIS A   4      35.282   4.884 -11.892  0.00  0.00     0.141 C 
BRANCH  31  32
ATOM     32  CG  HIS A   4      34.525   6.049 -11.291  0.00  0.00     0.056 A 
ATOM     33  ND1 HIS A   4      34.281   7.257 -11.906  0.00  0.00    -0.262 N 
ATOM     34  CE1 HIS A   4      33.620   8.037 -11.034  0.00  0.00     0.202 A 
ATOM     35  HD1 HIS A   4      34.543   7.508 -12.849  0.00  0.00     0.239 HD
ATOM     36  NE2 HIS A   4      33.435   7.401  -9.867  0.00  0.00    -0.344 NA
ATOM     37  CD2 HIS A   4      33.998   6.132 -10.029  0.00  0.00     0.005 A 
ENDBRANCH  31  32
ENDBRANCH   1  31
BRANCH   1  38
ATOM     38  C   HIS A   4      33.529   3.005 -11.815  0.00  0.00     0.206 C 
ATOM     39  O   HIS A   4      33.099   3.327 -12.925  0.00  0.00    -0.394 OA
ATOM     40  N   SER A   5      32.836   2.241 -10.961  0.00  0.00    -0.261 N 
ATOM     41  HN  SER A   5      33.242   2.016 -10.063  0.00  0.00     0.188 HD
BRANCH  40  42
ATOM     42  CA  SER A   5      31.510   1.687 -11.211  0.00  0.00     0.236 C 
BRANCH  42  43
ATOM     43  CB  SER A   5      31.547   0.182 -10.893  0.00  0.00     0.206 C 
BRANCH  43  44
ATOM     44  OG  SER A   5      32.874  -0.304 -10.800  0.00  0.00    -0.390 OA
ATOM     45  HG  SER A   5      33.441   0.404 -10.486  0.00  0.00     0.210 HD
ENDBRANCH  43  44
ENDBRANCH  42  43
BRANCH  42  46
ATOM     46  C   SER A   5      30.439   2.451 -10.409  0.00  0.00     0.206 C 
ATOM     47  O   SER A   5      30.593   2.712  -9.214  0.00  0.00    -0.394 OA
ATOM     48  N   TRP A   6      29.340   2.812 -11.086  0.00  0.00    -0.263 N 
ATOM     49  HN  TRP A   6      29.301   2.590 -12.074  0.00  0.00     0.188 HD
BRANCH  48  50
ATOM     50  CA  TRP A   6      28.273   3.653 -10.558  0.00  0.00     0.217 C 
BRANCH  50  51
ATOM     51  CB  TRP A   6      28.592   5.127 -10.861  0.00  0.00     0.084 C 
BRANCH  51  52
ATOM     52  CG  TRP A   6      29.439   5.449 -12.065  0.00  0.00    -0.042 A 
ATOM     53  CD1 TRP A   6      30.718   5.880 -11.980  0.00  0.00     0.096 A 
ATOM     54  NE1 TRP A   6      31.247   6.066 -13.235  0.00  0.00    -0.289 N 
ATOM     55  CE2 TRP A   6      30.332   5.763 -14.218  0.00  0.00     0.060 A 
ATOM     56  HE1 TRP A   6      32.199   6.371 -13.388  0.00  0.00     0.222 HD
ATOM     57  CD2 TRP A   6      29.154   5.372 -13.507  0.00  0.00    -0.021 A 
ATOM     58  CZ2 TRP A   6      30.402   5.791 -15.619  0.00  0.00     0.010 A 
ATOM     59  CE3 TRP A   6      28.039   5.012 -14.301  0.00  0.00    -0.021 A 
ATOM     60  CZ3 TRP A   6      28.092   5.049 -15.708  0.00  0.00    -0.028 A 
ATOM     61  CH2 TRP A   6      29.270   5.434 -16.368  0.00  0.00    -0.024 A 
ENDBRANCH  51  52
ENDBRANCH  50  51
BRANCH  50  62
ATOM     62  C   TRP A   6      26.915   3.211 -11.130  0.00  0.00     0.205 C 
ATOM     63  O   TRP A   6      25.999   4.017 -11.312  0.00  0.00    -0.394 OA
ATOM     64  N   ALA A   7      26.784   1.907 -11.407  0.00  0.00    -0.259 N 
ATOM     65  HN  ALA A   7      27.604   1.322 -11.278  0.00  0.00     0.189 HD
BRANCH  64  66
ATOM     66  CA  ALA A   7      25.643   1.286 -12.076  0.00  0.00     0.266 C 
ATOM     67  CB  ALA A   7      25.863   1.379 -13.594  0.00  0.00     0.065 C 
BRANCH  66  68
ATOM     68  C   ALA A   7      25.422  -0.165 -11.601  0.00  0.00     0.390 C 
ATOM     69  O   ALA A   7      26.129  -0.677 -10.737  0.00  0.00    -0.295 OA
ATOM     70  N   NHH A   8      24.481  -0.877 -12.222  0.00  0.00    -0.205 N 
ATOM     71  HN1 NHH A   8      23.878  -0.398 -12.895  0.00  0.00     0.454 HD
ATOM     72  HN2 NHH A   8      24.306  -1.830 -11.948  0.00  0.00     0.454 HD
ENDBRANCH  66  68
ENDBRANCH  64  66
ENDBRANCH  50  62
ENDBRANCH  48  50
ENDBRANCH  42  46
ENDBRANCH  40  42
ENDBRANCH   1  38
TORSDOF 21
ENDMDL
MODEL 2
REMARK VINA RESULT:     -11.1      1.651      3.896
REMARK  21 active torsions:
REMARK  status: ('A' for Active; 'I' for Inactive)
REMARK    1  A    between atoms: CA_2  and  C_3 
REMARK       I    between atoms: C_3  and  N_10 
REMARK    2  A    between atoms: CA_11  and  N_10 
REMARK    3  A    between atoms: CA_11  and  C_12 
REMARK       I    between atoms: C_12  and  N_16 
REMARK    4  A    between atoms: CA_17  and  N_16 
REMARK    5  A    between atoms: CA_17  and  CB_20 
REMARK    6  A    between atoms: CA_17  and  C_18 
REMARK       I    between atoms: C_18  and  N_28 
REMARK    7  A    between atoms: CB_20  and  CG_21 
REMARK    8  A    between atoms: CA_29  and  N_28 
REMARK    9  A    between atoms: CA_29  and  CB_32 
REMARK   10  A    between atoms: CA_29  and  C_30 
REMARK       I    between atoms: C_30  and  N_40 
REMARK   11  A    between atoms: CB_32  and  CG_33 
REMARK   12  A    between atoms: CA_41  and  N_40 
REMARK   13  A    between atoms: CA_41  and  CB_44 
REMARK   14  A    between atoms: CA_41  and  C_42 
REMARK       I    between atoms: C_42  and  N_48 
REMARK   15  A    between atoms: CB_44  and  OG_45 
REMARK   16  A    between atoms: CA_49  and  N_48 
REMARK   17  A    between atoms: CA_49  and  CB_52 
REMARK   18  A    between atoms: CA_49  and  C_50 
REMARK       I    between atoms: C_50  and  N_64 
REMARK   19  A    between atoms: CB_52  and  CG_53 
REMARK   20  A    between atoms: CA_65  and  N_64 
REMARK   21  A    between atoms: CA_65  and  C_66 
REMARK       I    between atoms: C_66  and  N_70 
ROOT
ATOM      1  CA  HIS A   4      34.224   3.201 -11.583  0.00  0.00     0.225 C 
ENDROOT
BRANCH   1   2
ATOM      2  N   HIS A   4      35.349   2.317 -11.881  0.00  0.00    -0.262 N 
ATOM      3  HN  HIS A   4      35.315   1.852 -12.776  0.00  0.00     0.189 HD
ATOM      4  C   PHE A   3      36.292   1.930 -11.008  0.00  0.00     0.206 C 
ATOM      5  O   PHE A   3      36.435   2.429  -9.894  0.00  0.00    -0.394 OA
BRANCH   4   6
ATOM      6  CA  PHE A   3      37.172   0.751 -11.427  0.00  0.00     0.223 C 
BRANCH   6   7
ATOM      7  N   PHE A   3      36.387  -0.116 -12.301  0.00  0.00    -0.262 N 
ATOM      8  HN  PHE A   3      35.811   0.340 -12.994  0.00  0.00     0.189 HD
ATOM      9  C   ALA A   2      36.278  -1.440 -12.141  0.00  0.00     0.204 C 
ATOM     10  O   ALA A   2      36.915  -2.072 -11.298  0.00  0.00    -0.394 OA
BRANCH   9  11
ATOM     11  CA  ALA A   2      35.316  -2.168 -13.081  0.00  0.00     0.208 C 
ATOM     12  CB  ALA A   2      34.814  -1.227 -14.181  0.00  0.00     0.059 C 
BRANCH  11  13
ATOM     13  N   ALA A   2      34.192  -2.667 -12.302  0.00  0.00    -0.261 N 
ATOM     14  HN  ALA A   2      33.689  -1.967 -11.773  0.00  0.00     0.189 HD
ATOM     15  C   PRO A   1      33.872  -3.960 -12.176  0.00  0.00     0.241 C 
ATOM     16  O   PRO A   1      34.457  -4.868 -12.770  0.00  0.00    -0.390 OA
BRANCH  15  17
ATOM     17  CA  PRO A   1      32.710  -4.311 -11.248  0.00  0.00     0.309 C 
ATOM     18  CB  PRO A   1      31.621  -5.126 -11.967  0.00  0.00     0.098 C 
ATOM     19  CG  PRO A   1      30.550  -4.088 -12.299  0.00  0.00     0.074 C 
ATOM     20  CD  PRO A   1      30.661  -3.161 -11.095  0.00  0.00     0.280 C 
ATOM     21  N   PRO A   1      32.097  -3.051 -10.780  0.00  0.00    -0.414 N 
ATOM     22  H1  PRO A   1      32.271  -2.878  -9.799  0.00  0.00     0.369 HD
ATOM     23  H2  PRO A   1      32.531  -2.323 -11.346  0.00  0.00     0.369 HD
ENDBRANCH  15  17
ENDBRANCH  11  13
ENDBRANCH   9  11
ENDBRANCH   6   7
BRANCH   6  24
ATOM     24  CB  PHE A   3      38.465   1.190 -12.140  0.00  0.00     0.116 C 
BRANCH  24  25
ATOM     25  CG  PHE A   3      39.333   0.084 -12.721  0.00  0.00    -0.039 A 
ATOM     26  CD1 PHE A   3      39.320  -0.147 -14.112  0.00  0.00    -0.004 A 
ATOM     27  CE1 PHE A   3      40.077  -1.193 -14.668  0.00  0.00    -0.009 A 
ATOM     28  CZ  PHE A   3      40.862  -2.011 -13.838  0.00  0.00    -0.013 A 
ATOM     29  CE2 PHE A   3      40.883  -1.787 -12.452  0.00  0.00    -0.009 A 
ATOM     30  CD2 PHE A   3      40.116  -0.749 -11.893  0.00  0.00    -0.004 A 
ENDBRANCH  24  25
ENDBRANCH   6  24
ENDBRANCH   4   6
ENDBRANCH   1   2
BRANCH   1  31
ATOM     31  CB  HIS A   4      34.382   4.526 -12.356  0.00  0.00     0.141 C 
BRANCH  31  32
ATOM     32  CG  HIS A   4      33.970   5.765 -11.590  0.00  0.00     0.056 A 
ATOM     33  ND1 HIS A   4      33.433   6.910 -12.134  0.00  0.00    -0.262 N 
ATOM     34  CE1 HIS A   4      33.245   7.791 -11.138  0.00  0.00     0.202 A 
ATOM     35  HD1 HIS A   4      33.210   7.057 -13.109  0.00  0.00     0.239 HD
ATOM     36  NE2 HIS A   4      33.653   7.281  -9.965  0.00  0.00    -0.344 NA
ATOM     37  CD2 HIS A   4      34.104   5.989 -10.245  0.00  0.00     0.005 A 
ENDBRANCH  31  32
ENDBRANCH   1  31
BRANCH   1  38
ATOM     38  C   HIS A   4      32.861   2.528 -11.805  0.00  0.00     0.206 C 
ATOM     39  O   HIS A   4      32.216   2.732 -12.835  0.00  0.00    -0.394 OA
ATOM     40  N   SER A   5      32.417   1.744 -10.813  0.00  0.00    -0.261 N 
ATOM     41  HN  SER A   5      32.992   1.621  -9.991  0.00  0.00     0.188 HD
BRANCH  40  42
ATOM     42  CA  SER A   5      31.145   1.032 -10.807  0.00  0.00     0.236 C 
BRANCH  42  43
ATOM     43  CB  SER A   5      30.062   1.982 -10.264  0.00  0.00     0.206 C 
BRANCH  43  44
ATOM     44  OG  SER A   5      28.904   1.279  -9.852  0.00  0.00    -0.390 OA
ATOM     45  HG  SER A   5      29.103   0.806  -9.041  0.00  0.00     0.210 HD
ENDBRANCH  43  44
ENDBRANCH  42  43
BRANCH  42  46
ATOM     46  C   SER A   5      30.822   0.480 -12.208  0.00  0.00     0.206 C 
ATOM     47  O   SER A   5      31.438  -0.477 -12.680  0.00  0.00    -0.394 OA
ATOM     48  N   TRP A   6      29.839   1.100 -12.876  0.00  0.00    -0.263 N 
ATOM     49  HN  TRP A   6      29.357   1.859 -12.407  0.00  0.00     0.188 HD
BRANCH  48  50
ATOM     50  CA  TRP A   6      29.287   0.657 -14.150  0.00  0.00     0.217 C 
BRANCH  50  51
ATOM     51  CB  TRP A   6      28.083  -0.264 -13.888  0.00  0.00     0.084 C 
BRANCH  51  52
ATOM     52  CG  TRP A   6      27.101   0.118 -12.812  0.00  0.00    -0.042 A 
ATOM     53  CD1 TRP A   6      26.990  -0.544 -11.638  0.00  0.00     0.096 A 
ATOM     54  NE1 TRP A   6      26.035   0.045 -10.843  0.00  0.00    -0.289 N 
ATOM     55  CE2 TRP A   6      25.465   1.135 -11.461  0.00  0.00     0.060 A 
ATOM     56  HE1 TRP A   6      25.812  -0.291  -9.916  0.00  0.00     0.222 HD
ATOM     57  CD2 TRP A   6      26.117   1.209 -12.733  0.00  0.00    -0.021 A 
ATOM     58  CZ2 TRP A   6      24.471   2.040 -11.060  0.00  0.00     0.010 A 
ATOM     59  CE3 TRP A   6      25.698   2.259 -13.585  0.00  0.00    -0.021 A 
ATOM     60  CZ3 TRP A   6      24.692   3.166 -13.199  0.00  0.00    -0.028 A 
ATOM     61  CH2 TRP A   6      24.081   3.062 -11.940  0.00  0.00    -0.024 A 
ENDBRANCH  51  52
ENDBRANCH  50  51
BRANCH  50  62
ATOM     62  C   TRP A   6      28.924   1.871 -15.023  0.00  0.00     0.205 C 
ATOM     63  O   TRP A   6      28.261   1.747 -16.056  0.00  0.00    -0.394 OA
ATOM     64  N   ALA A   7      29.377   3.060 -14.603  0.00  0.00    -0.259 N 
ATOM     65  HN  ALA A   7      29.870   3.080 -13.716  0.00  0.00     0.189 HD
BRANCH  64  66
ATOM     66  CA  ALA A   7      29.049   4.355 -15.192  0.00  0.00     0.266 C 
ATOM     67  CB  ALA A   7      27.910   4.984 -14.374  0.00  0.00     0.065 C 
BRANCH  66  68
ATOM     68  C   ALA A   7      30.285   5.274 -15.280  0.00  0.00     0.390 C 
ATOM     69  O   ALA A   7      30.502   5.972 -16.267  0.00  0.00    -0.295 OA
ATOM     70  N   NHH A   8      31.159   5.225 -14.274  0.00  0.00    -0.205 N 
ATOM     71  HN1 NHH A   8      30.914   4.676 -13.448  0.00  0.00     0.454 HD
ATOM     72  HN2 NHH A   8      31.982   5.804 -14.293  0.00  0.00     0.454 HD
ENDBRANCH  66  68
ENDBRANCH  64  66
ENDBRANCH  50  62
ENDBRANCH  48  50
ENDBRANCH  42  46
ENDBRANCH  40  42
ENDBRANCH   1  38
TORSDOF 21
ENDMDL
MODEL 3
REMARK VINA RESULT:     -10.9      1.873      3.951
REMARK  21 active torsions:
REMARK  status: ('A' for Active; 'I' for Inactive)
REMARK    1  A    between atoms: CA_2  and  C_3 
REMARK       I    between atoms: C_3  and  N_10 
REMARK    2  A    between atoms: CA_11  and  N_10 
REMARK    3  A    between atoms: CA_11  and  C_12 
REMARK       I    between atoms: C_12  and  N_16 
REMARK    4  A    between atoms: CA_17  and  N_16 
REMARK    5  A    between atoms: CA_17  and  CB_20 
REMARK    6  A    between atoms: CA_17  and  C_18 
REMARK       I    between atoms: C_18  and  N_28 
REMARK    7  A    between atoms: CB_20  and  CG_21 
REMARK    8  A    between atoms: CA_29  and  N_28 
REMARK    9  A    between atoms: CA_29  and  CB_32 
REMARK   10  A    between atoms: CA_29  and  C_30 
REMARK       I    between atoms: C_30  and  N_40 
REMARK   11  A    between atoms: CB_32  and  CG_33 
REMARK   12  A    between atoms: CA_41  and  N_40 
REMARK   13  A    between atoms: CA_41  and  CB_44 
REMARK   14  A    between atoms: CA_41  and  C_42 
REMARK       I    between atoms: C_42  and  N_48 
REMARK   15  A    between atoms: CB_44  and  OG_45 
REMARK   16  A    between atoms: CA_49  and  N_48 
REMARK   17  A    between atoms: CA_49  and  CB_52 
REMARK   18  A    between atoms: CA_49  and  C_50 
REMARK       I    between atoms: C_50  and  N_64 
REMARK   19  A    between atoms: CB_52  and  CG_53 
REMARK   20  A    between atoms: CA_65  and  N_64 
REMARK   21  A    between atoms: CA_65  and  C_66 
REMARK       I    between atoms: C_66  and  N_70 
ROOT
ATOM      1  CA  HIS A   4      34.738   3.234 -11.383  0.00  0.00     0.225 C 
ENDROOT
BRANCH   1   2
ATOM      2  N   HIS A   4      35.848   2.310 -11.606  0.00  0.00    -0.262 N 
ATOM      3  HN  HIS A   4      35.928   1.940 -12.541  0.00  0.00     0.189 HD
ATOM      4  C   PHE A   3      36.624   1.775 -10.650  0.00  0.00     0.206 C 
ATOM      5  O   PHE A   3      36.619   2.149  -9.480  0.00  0.00    -0.394 OA
BRANCH   4   6
ATOM      6  CA  PHE A   3      37.495   0.587 -11.061  0.00  0.00     0.223 C 
BRANCH   6   7
ATOM      7  N   PHE A   3      36.731  -0.239 -11.991  0.00  0.00    -0.262 N 
ATOM      8  HN  PHE A   3      36.177   0.248 -12.682  0.00  0.00     0.189 HD
ATOM      9  C   ALA A   2      36.612  -1.568 -11.890  0.00  0.00     0.204 C 
ATOM     10  O   ALA A   2      37.222  -2.238 -11.056  0.00  0.00    -0.394 OA
BRANCH   9  11
ATOM     11  CA  ALA A   2      35.674  -2.252 -12.886  0.00  0.00     0.208 C 
ATOM     12  CB  ALA A   2      35.227  -1.270 -13.973  0.00  0.00     0.059 C 
BRANCH  11  13
ATOM     13  N   ALA A   2      34.515  -2.755 -12.163  0.00  0.00    -0.261 N 
ATOM     14  HN  ALA A   2      34.067  -2.089 -11.546  0.00  0.00     0.189 HD
ATOM     15  C   PRO A   1      34.095  -4.025 -12.194  0.00  0.00     0.241 C 
ATOM     16  O   PRO A   1      34.608  -4.895 -12.901  0.00  0.00    -0.390 OA
BRANCH  15  17
ATOM     17  CA  PRO A   1      32.909  -4.398 -11.305  0.00  0.00     0.309 C 
ATOM     18  CB  PRO A   1      31.797  -5.110 -12.094  0.00  0.00     0.098 C 
ATOM     19  CG  PRO A   1      30.773  -4.006 -12.354  0.00  0.00     0.074 C 
ATOM     20  CD  PRO A   1      30.907  -3.179 -11.081  0.00  0.00     0.280 C 
ATOM     21  N   PRO A   1      32.343  -3.153 -10.747  0.00  0.00    -0.414 N 
ATOM     22  H1  PRO A   1      32.512  -3.062  -9.755  0.00  0.00     0.369 HD
ATOM     23  H2  PRO A   1      32.812  -2.402 -11.252  0.00  0.00     0.369 HD
ENDBRANCH  15  17
ENDBRANCH  11  13
ENDBRANCH   9  11
ENDBRANCH   6   7
BRANCH   6  24
ATOM     24  CB  PHE A   3      38.828   1.013 -11.703  0.00  0.00     0.116 C 
BRANCH  24  25
ATOM     25  CG  PHE A   3      39.548  -0.033 -12.543  0.00  0.00    -0.039 A 
ATOM     26  CD1 PHE A   3      40.385  -0.973 -11.908  0.00  0.00    -0.004 A 
ATOM     27  CE1 PHE A   3      41.096  -1.919 -12.666  0.00  0.00    -0.009 A 
ATOM     28  CZ  PHE A   3      40.969  -1.940 -14.065  0.00  0.00    -0.013 A 
ATOM     29  CE2 PHE A   3      40.135  -1.009 -14.706  0.00  0.00    -0.009 A 
ATOM     30  CD2 PHE A   3      39.432  -0.053 -13.949  0.00  0.00    -0.004 A 
ENDBRANCH  24  25
ENDBRANCH   6  24
ENDBRANCH   4   6
ENDBRANCH   1   2
BRANCH   1  31
ATOM     31  CB  HIS A   4      35.110   4.635 -11.911  0.00  0.00     0.141 C 
BRANCH  31  32
ATOM     32  CG  HIS A   4      34.498   5.788 -11.146  0.00  0.00     0.056 A 
ATOM     33  ND1 HIS A   4      34.049   5.747  -9.845  0.00  0.00    -0.262 N 
ATOM     34  CE1 HIS A   4      33.538   6.954  -9.547  0.00  0.00     0.202 A 
ATOM     35  HD1 HIS A   4      34.103   4.953  -9.222  0.00  0.00     0.239 HD
ATOM     36  NE2 HIS A   4      33.616   7.780 -10.602  0.00  0.00    -0.344 NA
ATOM     37  CD2 HIS A   4      34.236   7.048 -11.617  0.00  0.00     0.005 A 
ENDBRANCH  31  32
ENDBRANCH   1  31
BRANCH   1  38
ATOM     38  C   HIS A   4      33.405   2.711 -11.938  0.00  0.00     0.206 C 
ATOM     39  O   HIS A   4      33.378   1.781 -12.745  0.00  0.00    -0.394 OA
ATOM     40  N   SER A   5      32.299   3.339 -11.517  0.00  0.00    -0.261 N 
ATOM     41  HN  SER A   5      32.387   4.099 -10.857  0.00  0.00     0.188 HD
BRANCH  40  42
ATOM     42  CA  SER A   5      30.938   3.021 -11.934  0.00  0.00     0.236 C 
BRANCH  42  43
ATOM     43  CB  SER A   5      29.965   3.592 -10.888  0.00  0.00     0.206 C 
BRANCH  43  44
ATOM     44  OG  SER A   5      28.977   4.414 -11.481  0.00  0.00    -0.390 OA
ATOM     45  HG  SER A   5      28.114   4.027 -11.316  0.00  0.00     0.210 HD
ENDBRANCH  43  44
ENDBRANCH  42  43
BRANCH  42  46
ATOM     46  C   SER A   5      30.670   3.539 -13.360  0.00  0.00     0.206 C 
ATOM     47  O   SER A   5      31.449   4.312 -13.921  0.00  0.00    -0.394 OA
ATOM     48  N   TRP A   6      29.547   3.101 -13.946  0.00  0.00    -0.263 N 
ATOM     49  HN  TRP A   6      28.973   2.441 -13.433  0.00  0.00     0.188 HD
BRANCH  48  50
ATOM     50  CA  TRP A   6      29.173   3.358 -15.331  0.00  0.00     0.217 C 
BRANCH  50  51
ATOM     51  CB  TRP A   6      28.337   2.179 -15.858  0.00  0.00     0.084 C 
BRANCH  51  52
ATOM     52  CG  TRP A   6      27.790   1.183 -14.869  0.00  0.00    -0.042 A 
ATOM     53  CD1 TRP A   6      28.420   0.030 -14.551  0.00  0.00     0.096 A 
ATOM     54  NE1 TRP A   6      27.704  -0.664 -13.604  0.00  0.00    -0.289 N 
ATOM     55  CE2 TRP A   6      26.555   0.007 -13.249  0.00  0.00     0.060 A 
ATOM     56  HE1 TRP A   6      28.016  -1.546 -13.221  0.00  0.00     0.222 HD
ATOM     57  CD2 TRP A   6      26.569   1.194 -14.048  0.00  0.00    -0.021 A 
ATOM     58  CZ2 TRP A   6      25.526  -0.289 -12.342  0.00  0.00     0.010 A 
ATOM     59  CE3 TRP A   6      25.471   2.070 -13.878  0.00  0.00    -0.021 A 
ATOM     60  CZ3 TRP A   6      24.425   1.778 -12.980  0.00  0.00    -0.028 A 
ATOM     61  CH2 TRP A   6      24.452   0.604 -12.211  0.00  0.00    -0.024 A 
ENDBRANCH  51  52
ENDBRANCH  50  51
BRANCH  50  62
ATOM     62  C   TRP A   6      28.435   4.704 -15.442  0.00  0.00     0.205 C 
ATOM     63  O   TRP A   6      28.652   5.484 -16.373  0.00  0.00    -0.394 OA
ATOM     64  N   ALA A   7      27.557   4.981 -14.468  0.00  0.00    -0.259 N 
ATOM     65  HN  ALA A   7      27.401   4.262 -13.768  0.00  0.00     0.189 HD
BRANCH  64  66
ATOM     66  CA  ALA A   7      26.652   6.126 -14.435  0.00  0.00     0.266 C 
ATOM     67  CB  ALA A   7      25.213   5.603 -14.311  0.00  0.00     0.065 C 
BRANCH  66  68
ATOM     68  C   ALA A   7      27.019   7.113 -13.306  0.00  0.00     0.390 C 
ATOM     69  O   ALA A   7      28.074   7.020 -12.686  0.00  0.00    -0.295 OA
ATOM     70  N   NHH A   8      26.108   8.027 -12.971  0.00  0.00    -0.205 N 
ATOM     71  HN1 NHH A   8      25.268   8.107 -13.549  0.00  0.00     0.454 HD
ATOM     72  HN2 NHH A   8      26.303   8.687 -12.236  0.00  0.00     0.454 HD
ENDBRANCH  66  68
ENDBRANCH  64  66
ENDBRANCH  50  62
ENDBRANCH  48  50
ENDBRANCH  42  46
ENDBRANCH  40  42
ENDBRANCH   1  38
TORSDOF 21
ENDMDL
MODEL 4
REMARK VINA RESULT:     -10.8      2.280     10.086
REMARK  21 active torsions:
REMARK  status: ('A' for Active; 'I' for Inactive)
REMARK    1  A    between atoms: CA_2  and  C_3 
REMARK       I    between atoms: C_3  and  N_10 
REMARK    2  A    between atoms: CA_11  and  N_10 
REMARK    3  A    between atoms: CA_11  and  C_12 
REMARK       I    between atoms: C_12  and  N_16 
REMARK    4  A    between atoms: CA_17  and  N_16 
REMARK    5  A    between atoms: CA_17  and  CB_20 
REMARK    6  A    between atoms: CA_17  and  C_18 
REMARK       I    between atoms: C_18  and  N_28 
REMARK    7  A    between atoms: CB_20  and  CG_21 
REMARK    8  A    between atoms: CA_29  and  N_28 
REMARK    9  A    between atoms: CA_29  and  CB_32 
REMARK   10  A    between atoms: CA_29  and  C_30 
REMARK       I    between atoms: C_30  and  N_40 
REMARK   11  A    between atoms: CB_32  and  CG_33 
REMARK   12  A    between atoms: CA_41  and  N_40 
REMARK   13  A    between atoms: CA_41  and  CB_44 
REMARK   14  A    between atoms: CA_41  and  C_42 
REMARK       I    between atoms: C_42  and  N_48 
REMARK   15  A    between atoms: CB_44  and  OG_45 
REMARK   16  A    between atoms: CA_49  and  N_48 
REMARK   17  A    between atoms: CA_49  and  CB_52 
REMARK   18  A    between atoms: CA_49  and  C_50 
REMARK       I    between atoms: C_50  and  N_64 
REMARK   19  A    between atoms: CB_52  and  CG_53 
REMARK   20  A    between atoms: CA_65  and  N_64 
REMARK   21  A    between atoms: CA_65  and  C_66 
REMARK       I    between atoms: C_66  and  N_70 
ROOT
ATOM      1  CA  HIS A   4      31.977   3.729 -11.024  0.00  0.00     0.225 C 
ENDROOT
BRANCH   1   2
ATOM      2  N   HIS A   4      31.096   2.563 -10.988  0.00  0.00    -0.262 N 
ATOM      3  HN  HIS A   4      31.538   1.675 -11.166  0.00  0.00     0.189 HD
ATOM      4  C   PHE A   3      29.755   2.598 -10.936  0.00  0.00     0.206 C 
ATOM      5  O   PHE A   3      29.108   3.619 -10.717  0.00  0.00    -0.394 OA
BRANCH   4   6
ATOM      6  CA  PHE A   3      29.023   1.290 -11.245  0.00  0.00     0.223 C 
BRANCH   6   7
ATOM      7  N   PHE A   3      27.608   1.594 -11.435  0.00  0.00    -0.262 N 
ATOM      8  HN  PHE A   3      27.365   2.566 -11.565  0.00  0.00     0.189 HD
ATOM      9  C   ALA A   2      26.625   0.695 -11.302  0.00  0.00     0.204 C 
ATOM     10  O   ALA A   2      26.829  -0.503 -11.107  0.00  0.00    -0.394 OA
BRANCH   9  11
ATOM     11  CA  ALA A   2      25.193   1.221 -11.421  0.00  0.00     0.208 C 
ATOM     12  CB  ALA A   2      24.226   0.088 -11.776  0.00  0.00     0.059 C 
BRANCH  11  13
ATOM     13  N   ALA A   2      25.159   2.246 -12.453  0.00  0.00    -0.261 N 
ATOM     14  HN  ALA A   2      25.610   1.998 -13.324  0.00  0.00     0.189 HD
ATOM     15  C   PRO A   1      24.673   3.481 -12.279  0.00  0.00     0.241 C 
ATOM     16  O   PRO A   1      24.134   3.861 -11.238  0.00  0.00    -0.390 OA
BRANCH  15  17
ATOM     17  CA  PRO A   1      24.795   4.457 -13.449  0.00  0.00     0.309 C 
ATOM     18  CB  PRO A   1      26.256   4.850 -13.724  0.00  0.00     0.098 C 
ATOM     19  CG  PRO A   1      26.396   6.218 -13.057  0.00  0.00     0.074 C 
ATOM     20  CD  PRO A   1      25.006   6.797 -13.285  0.00  0.00     0.280 C 
ATOM     21  N   PRO A   1      24.053   5.687 -13.101  0.00  0.00    -0.414 N 
ATOM     22  H1  PRO A   1      23.212   5.798 -13.649  0.00  0.00     0.369 HD
ATOM     23  H2  PRO A   1      23.817   5.580 -12.116  0.00  0.00     0.369 HD
ENDBRANCH  15  17
ENDBRANCH  11  13
ENDBRANCH   9  11
ENDBRANCH   6   7
BRANCH   6  24
ATOM     24  CB  PHE A   3      29.581   0.570 -12.487  0.00  0.00     0.116 C 
BRANCH  24  25
ATOM     25  CG  PHE A   3      29.126   1.092 -13.842  0.00  0.00    -0.039 A 
ATOM     26  CD1 PHE A   3      29.503   2.389 -14.245  0.00  0.00    -0.004 A 
ATOM     27  CE1 PHE A   3      29.056   2.912 -15.471  0.00  0.00    -0.009 A 
ATOM     28  CZ  PHE A   3      28.236   2.138 -16.309  0.00  0.00    -0.013 A 
ATOM     29  CE2 PHE A   3      27.858   0.843 -15.917  0.00  0.00    -0.009 A 
ATOM     30  CD2 PHE A   3      28.293   0.324 -14.684  0.00  0.00    -0.004 A 
ENDBRANCH  24  25
ENDBRANCH   6  24
ENDBRANCH   4   6
ENDBRANCH   1   2
BRANCH   1  31
ATOM     31  CB  HIS A   4      32.249   4.223  -9.589  0.00  0.00     0.141 C 
BRANCH  31  32
ATOM     32  CG  HIS A   4      31.489   5.468  -9.188  0.00  0.00     0.056 A 
ATOM     33  ND1 HIS A   4      30.707   6.240 -10.018  0.00  0.00    -0.262 N 
ATOM     34  CE1 HIS A   4      30.240   7.276  -9.300  0.00  0.00     0.202 A 
ATOM     35  HD1 HIS A   4      30.510   6.053 -10.992  0.00  0.00     0.239 HD
ATOM     36  NE2 HIS A   4      30.697   7.228  -8.039  0.00  0.00    -0.344 NA
ATOM     37  CD2 HIS A   4      31.482   6.075  -7.959  0.00  0.00     0.005 A 
ENDBRANCH  31  32
ENDBRANCH   1  31
BRANCH   1  38
ATOM     38  C   HIS A   4      33.259   3.483 -11.834  0.00  0.00     0.206 C 
ATOM     39  O   HIS A   4      33.317   3.780 -13.029  0.00  0.00    -0.394 OA
ATOM     40  N   SER A   5      34.277   2.911 -11.177  0.00  0.00    -0.261 N 
ATOM     41  HN  SER A   5      34.165   2.687 -10.199  0.00  0.00     0.188 HD
BRANCH  40  42
ATOM     42  CA  SER A   5      35.569   2.570 -11.759  0.00  0.00     0.236 C 
BRANCH  42  43
ATOM     43  CB  SER A   5      36.539   3.736 -11.501  0.00  0.00     0.206 C 
BRANCH  43  44
ATOM     44  OG  SER A   5      37.862   3.282 -11.278  0.00  0.00    -0.390 OA
ATOM     45  HG  SER A   5      37.927   2.369 -11.569  0.00  0.00     0.210 HD
ENDBRANCH  43  44
ENDBRANCH  42  43
BRANCH  42  46
ATOM     46  C   SER A   5      36.078   1.224 -11.209  0.00  0.00     0.206 C 
ATOM     47  O   SER A   5      36.388   1.089 -10.024  0.00  0.00    -0.394 OA
ATOM     48  N   TRP A   6      36.161   0.218 -12.091  0.00  0.00    -0.263 N 
ATOM     49  HN  TRP A   6      35.857   0.398 -13.041  0.00  0.00     0.188 HD
BRANCH  48  50
ATOM     50  CA  TRP A   6      36.486  -1.163 -11.754  0.00  0.00     0.217 C 
BRANCH  50  51
ATOM     51  CB  TRP A   6      35.770  -2.105 -12.737  0.00  0.00     0.084 C 
BRANCH  51  52
ATOM     52  CG  TRP A   6      34.655  -2.976 -12.221  0.00  0.00    -0.042 A 
ATOM     53  CD1 TRP A   6      34.614  -4.315 -12.401  0.00  0.00     0.096 A 
ATOM     54  NE1 TRP A   6      33.498  -4.847 -11.799  0.00  0.00    -0.289 N 
ATOM     55  CE2 TRP A   6      32.742  -3.873 -11.187  0.00  0.00     0.060 A 
ATOM     56  HE1 TRP A   6      33.292  -5.837 -11.806  0.00  0.00     0.222 HD
ATOM     57  CD2 TRP A   6      33.448  -2.655 -11.443  0.00  0.00    -0.021 A 
ATOM     58  CZ2 TRP A   6      31.545  -3.921 -10.457  0.00  0.00     0.010 A 
ATOM     59  CE3 TRP A   6      32.865  -1.477 -10.918  0.00  0.00    -0.021 A 
ATOM     60  CZ3 TRP A   6      31.656  -1.511 -10.195  0.00  0.00    -0.028 A 
ATOM     61  CH2 TRP A   6      30.997  -2.728  -9.961  0.00  0.00    -0.024 A 
ENDBRANCH  51  52
ENDBRANCH  50  51
BRANCH  50  62
ATOM     62  C   TRP A   6      38.012  -1.363 -11.746  0.00  0.00     0.205 C 
ATOM     63  O   TRP A   6      38.573  -1.996 -10.849  0.00  0.00    -0.394 OA
ATOM     64  N   ALA A   7      38.689  -0.803 -12.757  0.00  0.00    -0.259 N 
ATOM     65  HN  ALA A   7      38.144  -0.344 -13.481  0.00  0.00     0.189 HD
BRANCH  64  66
ATOM     66  CA  ALA A   7      40.114  -0.972 -13.027  0.00  0.00     0.266 C 
ATOM     67  CB  ALA A   7      40.276  -1.496 -14.462  0.00  0.00     0.065 C 
BRANCH  66  68
ATOM     68  C   ALA A   7      40.901   0.334 -12.786  0.00  0.00     0.390 C 
ATOM     69  O   ALA A   7      42.088   0.437 -13.084  0.00  0.00    -0.295 OA
ATOM     70  N   NHH A   8      40.264   1.328 -12.166  0.00  0.00    -0.205 N 
ATOM     71  HN1 NHH A   8      39.263   1.223 -11.986  0.00  0.00     0.454 HD
ATOM     72  HN2 NHH A   8      40.741   2.196 -11.984  0.00  0.00     0.454 HD
ENDBRANCH  66  68
ENDBRANCH  64  66
ENDBRANCH  50  62
ENDBRANCH  48  50
ENDBRANCH  42  46
ENDBRANCH  40  42
ENDBRANCH   1  38
TORSDOF 21
ENDMDL
MODEL 5
REMARK VINA RESULT:     -10.6      2.490     10.300
REMARK  21 active torsions:
REMARK  status: ('A' for Active; 'I' for Inactive)
REMARK    1  A    between atoms: CA_2  and  C_3 
REMARK       I    between atoms: C_3  and  N_10 
REMARK    2  A    between atoms: CA_11  and  N_10 
REMARK    3  A    between atoms: CA_11  and  C_12 
REMARK       I    between atoms: C_12  and  N_16 
REMARK    4  A    between atoms: CA_17  and  N_16 
REMARK    5  A    between atoms: CA_17  and  CB_20 
REMARK    6  A    between atoms: CA_17  and  C_18 
REMARK       I    between atoms: C_18  and  N_28 
REMARK    7  A    between atoms: CB_20  and  CG_21 
REMARK    8  A    between atoms: CA_29  and  N_28 
REMARK    9  A    between atoms: CA_29  and  CB_32 
REMARK   10  A    between atoms: CA_29  and  C_30 
REMARK       I    between atoms: C_30  and  N_40 
REMARK   11  A    between atoms: CB_32  and  CG_33 
REMARK   12  A    between atoms: CA_41  and  N_40 
REMARK   13  A    between atoms: CA_41  and  CB_44 
REMARK   14  A    between atoms: CA_41  and  C_42 
REMARK       I    between atoms: C_42  and  N_48 
REMARK   15  A    between atoms: CB_44  and  OG_45 
REMARK   16  A    between atoms: CA_49  and  N_48 
REMARK   17  A    between atoms: CA_49  and  CB_52 
REMARK   18  A    between atoms: CA_49  and  C_50 
REMARK       I    between atoms: C_50  and  N_64 
REMARK   19  A    between atoms: CB_52  and  CG_53 
REMARK   20  A    between atoms: CA_65  and  N_64 
REMARK   21  A    between atoms: CA_65  and  C_66 
REMARK       I    between atoms: C_66  and  N_70 
ROOT
ATOM      1  CA  HIS A   4      31.180   2.084 -10.814  0.00  0.00     0.225 C 
ENDROOT
BRANCH   1   2
ATOM      2  N   HIS A   4      31.297   3.425 -10.242  0.00  0.00    -0.262 N 
ATOM      3  HN  HIS A   4      31.835   4.085 -10.783  0.00  0.00     0.189 HD
ATOM      4  C   PHE A   3      30.929   3.781  -9.002  0.00  0.00     0.206 C 
ATOM      5  O   PHE A   3      30.266   3.064  -8.256  0.00  0.00    -0.394 OA
BRANCH   4   6
ATOM      6  CA  PHE A   3      31.443   5.130  -8.495  0.00  0.00     0.223 C 
BRANCH   6   7
ATOM      7  N   PHE A   3      31.867   5.918  -9.649  0.00  0.00    -0.262 N 
ATOM      8  HN  PHE A   3      31.160   6.484 -10.097  0.00  0.00     0.189 HD
ATOM      9  C   ALA A   2      33.074   5.823 -10.219  0.00  0.00     0.204 C 
ATOM     10  O   ALA A   2      33.983   5.130  -9.760  0.00  0.00    -0.394 OA
BRANCH   9  11
ATOM     11  CA  ALA A   2      33.299   6.640 -11.491  0.00  0.00     0.208 C 
ATOM     12  CB  ALA A   2      33.776   8.056 -11.151  0.00  0.00     0.059 C 
BRANCH  11  13
ATOM     13  N   ALA A   2      32.048   6.702 -12.231  0.00  0.00    -0.261 N 
ATOM     14  HN  ALA A   2      31.503   7.542 -12.091  0.00  0.00     0.189 HD
ATOM     15  C   PRO A   1      31.557   5.702 -12.974  0.00  0.00     0.241 C 
ATOM     16  O   PRO A   1      32.153   4.641 -13.168  0.00  0.00    -0.390 OA
BRANCH  15  17
ATOM     17  CA  PRO A   1      30.185   5.908 -13.615  0.00  0.00     0.309 C 
ATOM     18  CB  PRO A   1      29.343   4.620 -13.605  0.00  0.00     0.098 C 
ATOM     19  CG  PRO A   1      29.505   4.070 -15.021  0.00  0.00     0.074 C 
ATOM     20  CD  PRO A   1      29.591   5.360 -15.827  0.00  0.00     0.280 C 
ATOM     21  N   PRO A   1      30.389   6.304 -15.023  0.00  0.00    -0.414 N 
ATOM     22  H1  PRO A   1      30.141   7.269 -15.193  0.00  0.00     0.369 HD
ATOM     23  H2  PRO A   1      31.384   6.164 -15.193  0.00  0.00     0.369 HD
ENDBRANCH  15  17
ENDBRANCH  11  13
ENDBRANCH   9  11
ENDBRANCH   6   7
BRANCH   6  24
ATOM     24  CB  PHE A   3      30.392   5.906  -7.681  0.00  0.00     0.116 C 
BRANCH  24  25
ATOM     25  CG  PHE A   3      30.736   7.342  -7.313  0.00  0.00    -0.039 A 
ATOM     26  CD1 PHE A   3      31.663   7.588  -6.280  0.00  0.00    -0.004 A 
ATOM     27  CE1 PHE A   3      31.963   8.905  -5.891  0.00  0.00    -0.009 A 
ATOM     28  CZ  PHE A   3      31.345   9.988  -6.537  0.00  0.00    -0.013 A 
ATOM     29  CE2 PHE A   3      30.422   9.752  -7.569  0.00  0.00    -0.009 A 
ATOM     30  CD2 PHE A   3      30.111   8.435  -7.951  0.00  0.00    -0.004 A 
ENDBRANCH  24  25
ENDBRANCH   6  24
ENDBRANCH   4   6
ENDBRANCH   1   2
BRANCH   1  31
ATOM     31  CB  HIS A   4      29.852   1.960 -11.587  0.00  0.00     0.141 C 
BRANCH  31  32
ATOM     32  CG  HIS A   4      29.310   0.552 -11.703  0.00  0.00     0.056 A 
ATOM     33  ND1 HIS A   4      29.629  -0.358 -12.686  0.00  0.00    -0.262 N 
ATOM     34  CE1 HIS A   4      28.911  -1.472 -12.465  0.00  0.00     0.202 A 
ATOM     35  HD1 HIS A   4      30.294  -0.217 -13.434  0.00  0.00     0.239 HD
ATOM     36  NE2 HIS A   4      28.120  -1.326 -11.390  0.00  0.00    -0.344 NA
ATOM     37  CD2 HIS A   4      28.378  -0.046 -10.895  0.00  0.00     0.005 A 
ENDBRANCH  31  32
ENDBRANCH   1  31
BRANCH   1  38
ATOM     38  C   HIS A   4      32.407   1.680 -11.645  0.00  0.00     0.206 C 
ATOM     39  O   HIS A   4      32.337   0.768 -12.471  0.00  0.00    -0.394 OA
ATOM     40  N   SER A   5      33.540   2.352 -11.397  0.00  0.00    -0.261 N 
ATOM     41  HN  SER A   5      33.533   3.086 -10.704  0.00  0.00     0.188 HD
BRANCH  40  42
ATOM     42  CA  SER A   5      34.820   2.114 -12.053  0.00  0.00     0.236 C 
BRANCH  42  43
ATOM     43  CB  SER A   5      35.665   3.395 -11.943  0.00  0.00     0.206 C 
BRANCH  43  44
ATOM     44  OG  SER A   5      36.182   3.574 -10.636  0.00  0.00    -0.390 OA
ATOM     45  HG  SER A   5      35.981   2.793 -10.116  0.00  0.00     0.210 HD
ENDBRANCH  43  44
ENDBRANCH  42  43
BRANCH  42  46
ATOM     46  C   SER A   5      35.516   0.874 -11.458  0.00  0.00     0.206 C 
ATOM     47  O   SER A   5      36.008   0.892 -10.329  0.00  0.00    -0.394 OA
ATOM     48  N   TRP A   6      35.552  -0.214 -12.239  0.00  0.00    -0.263 N 
ATOM     49  HN  TRP A   6      35.097  -0.161 -13.144  0.00  0.00     0.188 HD
BRANCH  48  50
ATOM     50  CA  TRP A   6      36.038  -1.524 -11.824  0.00  0.00     0.217 C 
BRANCH  50  51
ATOM     51  CB  TRP A   6      35.413  -2.605 -12.722  0.00  0.00     0.084 C 
BRANCH  51  52
ATOM     52  CG  TRP A   6      34.277  -3.431 -12.176  0.00  0.00    -0.042 A 
ATOM     53  CD1 TRP A   6      34.136  -4.753 -12.421  0.00  0.00     0.096 A 
ATOM     54  NE1 TRP A   6      33.028  -5.245 -11.772  0.00  0.00    -0.289 N 
ATOM     55  CE2 TRP A   6      32.380  -4.261 -11.061  0.00  0.00     0.060 A 
ATOM     56  HE1 TRP A   6      32.757  -6.218 -11.815  0.00  0.00     0.222 HD
ATOM     57  CD2 TRP A   6      33.147  -3.077 -11.303  0.00  0.00    -0.021 A 
ATOM     58  CZ2 TRP A   6      31.232  -4.273 -10.255  0.00  0.00     0.010 A 
ATOM     59  CE3 TRP A   6      32.679  -1.895 -10.680  0.00  0.00    -0.021 A 
ATOM     60  CZ3 TRP A   6      31.521  -1.892  -9.880  0.00  0.00    -0.028 A 
ATOM     61  CH2 TRP A   6      30.798  -3.076  -9.663  0.00  0.00    -0.024 A 
ENDBRANCH  51  52
ENDBRANCH  50  51
BRANCH  50  62
ATOM     62  C   TRP A   6      37.577  -1.553 -11.847  0.00  0.00     0.205 C 
ATOM     63  O   TRP A   6      38.227  -2.024 -10.911  0.00  0.00    -0.394 OA
ATOM     64  N   ALA A   7      38.164  -1.028 -12.931  0.00  0.00    -0.259 N 
ATOM     65  HN  ALA A   7      37.554  -0.709 -13.678  0.00  0.00     0.189 HD
BRANCH  64  66
ATOM     66  CA  ALA A   7      39.592  -1.064 -13.231  0.00  0.00     0.266 C 
ATOM     67  CB  ALA A   7      39.765  -1.313 -14.737  0.00  0.00     0.065 C 
BRANCH  66  68
ATOM     68  C   ALA A   7      40.308   0.219 -12.761  0.00  0.00     0.390 C 
ATOM     69  O   ALA A   7      40.143   1.296 -13.329  0.00  0.00    -0.295 OA
ATOM     70  N   NHH A   8      41.181   0.104 -11.760  0.00  0.00    -0.205 N 
ATOM     71  HN1 NHH A   8      41.248  -0.795 -11.278  0.00  0.00     0.454 HD
ATOM     72  HN2 NHH A   8      41.675   0.915 -11.425  0.00  0.00     0.454 HD
ENDBRANCH  66  68
ENDBRANCH  64  66
ENDBRANCH  50  62
ENDBRANCH  48  50
ENDBRANCH  42  46
ENDBRANCH  40  42
ENDBRANCH   1  38
TORSDOF 21
ENDMDL
MODEL 6
REMARK VINA RESULT:     -10.4      1.999      9.295
REMARK  21 active torsions:
REMARK  status: ('A' for Active; 'I' for Inactive)
REMARK    1  A    between atoms: CA_2  and  C_3 
REMARK       I    between atoms: C_3  and  N_10 
REMARK    2  A    between atoms: CA_11  and  N_10 
REMARK    3  A    between atoms: CA_11  and  C_12 
REMARK       I    between atoms: C_12  and  N_16 
REMARK    4  A    between atoms: CA_17  and  N_16 
REMARK    5  A    between atoms: CA_17  and  CB_20 
REMARK    6  A    between atoms: CA_17  and  C_18 
REMARK       I    between atoms: C_18  and  N_28 
REMARK    7  A    between atoms: CB_20  and  CG_21 
REMARK    8  A    between atoms: CA_29  and  N_28 
REMARK    9  A    between atoms: CA_29  and  CB_32 
REMARK   10  A    between atoms: CA_29  and  C_30 
REMARK       I    between atoms: C_30  and  N_40 
REMARK   11  A    between atoms: CB_32  and  CG_33 
REMARK   12  A    between atoms: CA_41  and  N_40 
REMARK   13  A    between atoms: CA_41  and  CB_44 
REMARK   14  A    between atoms: CA_41  and  C_42 
REMARK       I    between atoms: C_42  and  N_48 
REMARK   15  A    between atoms: CB_44  and  OG_45 
REMARK   16  A    between atoms: CA_49  and  N_48 
REMARK   17  A    between atoms: CA_49  and  CB_52 
REMARK   18  A    between atoms: CA_49  and  C_50 
REMARK       I    between atoms: C_50  and  N_64 
REMARK   19  A    between atoms: CB_52  and  CG_53 
REMARK   20  A    between atoms: CA_65  and  N_64 
REMARK   21  A    between atoms: CA_65  and  C_66 
REMARK       I    between atoms: C_66  and  N_70 
ROOT
ATOM      1  CA  HIS A   4      30.215   3.826 -10.734  0.00  0.00     0.225 C 
ENDROOT
BRANCH   1   2
ATOM      2  N   HIS A   4      29.468   2.618 -11.080  0.00  0.00    -0.262 N 
ATOM      3  HN  HIS A   4      28.469   2.671 -10.955  0.00  0.00     0.189 HD
ATOM      4  C   PHE A   3      30.004   1.418 -11.351  0.00  0.00     0.206 C 
ATOM      5  O   PHE A   3      31.206   1.233 -11.531  0.00  0.00    -0.394 OA
BRANCH   4   6
ATOM      6  CA  PHE A   3      29.047   0.225 -11.354  0.00  0.00     0.223 C 
BRANCH   6   7
ATOM      7  N   PHE A   3      27.698   0.724 -11.609  0.00  0.00    -0.262 N 
ATOM      8  HN  PHE A   3      27.623   1.661 -11.978  0.00  0.00     0.189 HD
ATOM      9  C   ALA A   2      26.581   0.079 -11.252  0.00  0.00     0.204 C 
ATOM     10  O   ALA A   2      26.582  -1.051 -10.762  0.00  0.00    -0.394 OA
BRANCH   9  11
ATOM     11  CA  ALA A   2      25.260   0.809 -11.494  0.00  0.00     0.208 C 
ATOM     12  CB  ALA A   2      24.185  -0.161 -11.994  0.00  0.00     0.059 C 
BRANCH  11  13
ATOM     13  N   ALA A   2      25.482   1.856 -12.481  0.00  0.00    -0.261 N 
ATOM     14  HN  ALA A   2      25.290   1.596 -13.439  0.00  0.00     0.189 HD
ATOM     15  C   PRO A   1      26.001   3.059 -12.205  0.00  0.00     0.241 C 
ATOM     16  O   PRO A   1      26.283   3.435 -11.065  0.00  0.00    -0.390 OA
BRANCH  15  17
ATOM     17  CA  PRO A   1      26.245   4.007 -13.379  0.00  0.00     0.309 C 
ATOM     18  CB  PRO A   1      26.677   5.407 -12.911  0.00  0.00     0.098 C 
ATOM     19  CG  PRO A   1      25.394   6.232 -12.999  0.00  0.00     0.074 C 
ATOM     20  CD  PRO A   1      24.725   5.600 -14.213  0.00  0.00     0.280 C 
ATOM     21  N   PRO A   1      24.978   4.150 -14.126  0.00  0.00    -0.414 N 
ATOM     22  H1  PRO A   1      25.011   3.703 -15.031  0.00  0.00     0.369 HD
ATOM     23  H2  PRO A   1      24.276   3.701 -13.539  0.00  0.00     0.369 HD
ENDBRANCH  15  17
ENDBRANCH  11  13
ENDBRANCH   9  11
ENDBRANCH   6   7
BRANCH   6  24
ATOM     24  CB  PHE A   3      29.422  -0.843 -12.398  0.00  0.00     0.116 C 
BRANCH  24  25
ATOM     25  CG  PHE A   3      30.018  -2.139 -11.865  0.00  0.00    -0.039 A 
ATOM     26  CD1 PHE A   3      30.481  -3.112 -12.773  0.00  0.00    -0.004 A 
ATOM     27  CE1 PHE A   3      30.992  -4.336 -12.307  0.00  0.00    -0.009 A 
ATOM     28  CZ  PHE A   3      31.053  -4.592 -10.927  0.00  0.00    -0.013 A 
ATOM     29  CE2 PHE A   3      30.596  -3.627 -10.015  0.00  0.00    -0.009 A 
ATOM     30  CD2 PHE A   3      30.072  -2.408 -10.481  0.00  0.00    -0.004 A 
ENDBRANCH  24  25
ENDBRANCH   6  24
ENDBRANCH   4   6
ENDBRANCH   1   2
BRANCH   1  31
ATOM     31  CB  HIS A   4      30.734   3.723  -9.285  0.00  0.00     0.141 C 
BRANCH  31  32
ATOM     32  CG  HIS A   4      30.790   5.034  -8.532  0.00  0.00     0.056 A 
ATOM     33  ND1 HIS A   4      31.914   5.802  -8.329  0.00  0.00    -0.262 N 
ATOM     34  CE1 HIS A   4      31.562   6.862  -7.582  0.00  0.00     0.202 A 
ATOM     35  HD1 HIS A   4      32.840   5.608  -8.688  0.00  0.00     0.239 HD
ATOM     36  NE2 HIS A   4      30.257   6.814  -7.270  0.00  0.00    -0.344 NA
ATOM     37  CD2 HIS A   4      29.759   5.660  -7.881  0.00  0.00     0.005 A 
ENDBRANCH  31  32
ENDBRANCH   1  31
BRANCH   1  38
ATOM     38  C   HIS A   4      31.318   4.159 -11.750  0.00  0.00     0.206 C 
ATOM     39  O   HIS A   4      31.034   4.488 -12.903  0.00  0.00    -0.394 OA
ATOM     40  N   SER A   5      32.580   4.042 -11.317  0.00  0.00    -0.261 N 
ATOM     41  HN  SER A   5      32.747   3.763 -10.360  0.00  0.00     0.188 HD
BRANCH  40  42
ATOM     42  CA  SER A   5      33.772   4.285 -12.121  0.00  0.00     0.236 C 
BRANCH  42  43
ATOM     43  CB  SER A   5      34.641   5.326 -11.394  0.00  0.00     0.206 C 
BRANCH  43  44
ATOM     44  OG  SER A   5      35.657   5.843 -12.234  0.00  0.00    -0.390 OA
ATOM     45  HG  SER A   5      36.069   6.591 -11.794  0.00  0.00     0.210 HD
ENDBRANCH  43  44
ENDBRANCH  42  43
BRANCH  42  46
ATOM     46  C   SER A   5      34.516   2.966 -12.407  0.00  0.00     0.206 C 
ATOM     47  O   SER A   5      34.083   2.147 -13.219  0.00  0.00    -0.394 OA
ATOM     48  N   TRP A   6      35.652   2.768 -11.724  0.00  0.00    -0.263 N 
ATOM     49  HN  TRP A   6      35.960   3.504 -11.097  0.00  0.00     0.188 HD
BRANCH  48  50
ATOM     50  CA  TRP A   6      36.573   1.660 -11.940  0.00  0.00     0.217 C 
BRANCH  50  51
ATOM     51  CB  TRP A   6      37.979   2.069 -11.467  0.00  0.00     0.084 C 
BRANCH  51  52
ATOM     52  CG  TRP A   6      39.071   1.032 -11.465  0.00  0.00    -0.042 A 
ATOM     53  CD1 TRP A   6      39.839   0.764 -10.385  0.00  0.00     0.096 A 
ATOM     54  NE1 TRP A   6      40.730  -0.244 -10.667  0.00  0.00    -0.289 N 
ATOM     55  CE2 TRP A   6      40.589  -0.694 -11.961  0.00  0.00     0.060 A 
ATOM     56  HE1 TRP A   6      41.384  -0.604  -9.985  0.00  0.00     0.222 HD
ATOM     57  CD2 TRP A   6      39.540   0.108 -12.510  0.00  0.00    -0.021 A 
ATOM     58  CZ2 TRP A   6      41.253  -1.689 -12.696  0.00  0.00     0.010 A 
ATOM     59  CE3 TRP A   6      39.198  -0.153 -13.858  0.00  0.00    -0.021 A 
ATOM     60  CZ3 TRP A   6      39.866  -1.139 -14.611  0.00  0.00    -0.028 A 
ATOM     61  CH2 TRP A   6      40.888  -1.909 -14.034  0.00  0.00    -0.024 A 
ENDBRANCH  51  52
ENDBRANCH  50  51
BRANCH  50  62
ATOM     62  C   TRP A   6      36.057   0.393 -11.235  0.00  0.00     0.205 C 
ATOM     63  O   TRP A   6      36.138   0.258 -10.011  0.00  0.00    -0.394 OA
ATOM     64  N   ALA A   7      35.528  -0.552 -12.024  0.00  0.00    -0.259 N 
ATOM     65  HN  ALA A   7      35.452  -0.338 -13.014  0.00  0.00     0.189 HD
BRANCH  64  66
ATOM     66  CA  ALA A   7      34.860  -1.768 -11.570  0.00  0.00     0.266 C 
ATOM     67  CB  ALA A   7      33.462  -1.389 -11.057  0.00  0.00     0.065 C 
BRANCH  66  68
ATOM     68  C   ALA A   7      34.808  -2.840 -12.679  0.00  0.00     0.390 C 
ATOM     69  O   ALA A   7      34.894  -2.544 -13.868  0.00  0.00    -0.295 OA
ATOM     70  N   NHH A   8      34.586  -4.100 -12.304  0.00  0.00    -0.205 N 
ATOM     71  HN1 NHH A   8      34.577  -4.312 -11.303  0.00  0.00     0.454 HD
ATOM     72  HN2 NHH A   8      34.539  -4.831 -12.994  0.00  0.00     0.454 HD
ENDBRANCH  66  68
ENDBRANCH  64  66
ENDBRANCH  50  62
ENDBRANCH  48  50
ENDBRANCH  42  46
ENDBRANCH  40  42
ENDBRANCH   1  38
TORSDOF 21
ENDMDL
MODEL 7
REMARK VINA RESULT:     -10.4      2.527     10.014
REMARK  21 active torsions:
REMARK  status: ('A' for Active; 'I' for Inactive)
REMARK    1  A    between atoms: CA_2  and  C_3 
REMARK       I    between atoms: C_3  and  N_10 
REMARK    2  A    between atoms: CA_11  and  N_10 
REMARK    3  A    between atoms: CA_11  and  C_12 
REMARK       I    between atoms: C_12  and  N_16 
REMARK    4  A    between atoms: CA_17  and  N_16 
REMARK    5  A    between atoms: CA_17  and  CB_20 
REMARK    6  A    between atoms: CA_17  and  C_18 
REMARK       I    between atoms: C_18  and  N_28 
REMARK    7  A    between atoms: CB_20  and  CG_21 
REMARK    8  A    between atoms: CA_29  and  N_28 
REMARK    9  A    between atoms: CA_29  and  CB_32 
REMARK   10  A    between atoms: CA_29  and  C_30 
REMARK       I    between atoms: C_30  and  N_40 
REMARK   11  A    between atoms: CB_32  and  CG_33 
REMARK   12  A    between atoms: CA_41  and  N_40 
REMARK   13  A    between atoms: CA_41  and  CB_44 
REMARK   14  A    between atoms: CA_41  and  C_42 
REMARK       I    between atoms: C_42  and  N_48 
REMARK   15  A    between atoms: CB_44  and  OG_45 
REMARK   16  A    between atoms: CA_49  and  N_48 
REMARK   17  A    between atoms: CA_49  and  CB_52 
REMARK   18  A    between atoms: CA_49  and  C_50 
REMARK       I    between atoms: C_50  and  N_64 
REMARK   19  A    between atoms: CB_52  and  CG_53 
REMARK   20  A    between atoms: CA_65  and  N_64 
REMARK   21  A    between atoms: CA_65  and  C_66 
REMARK       I    between atoms: C_66  and  N_70 
ROOT
ATOM      1  CA  HIS A   4      30.908   3.821 -12.235  0.00  0.00     0.225 C 
ENDROOT
BRANCH   1   2
ATOM      2  N   HIS A   4      30.082   2.717 -12.723  0.00  0.00    -0.262 N 
ATOM      3  HN  HIS A   4      30.045   1.903 -12.128  0.00  0.00     0.189 HD
ATOM      4  C   PHE A   3      29.550   2.622 -13.951  0.00  0.00     0.206 C 
ATOM      5  O   PHE A   3      29.530   3.549 -14.758  0.00  0.00    -0.394 OA
BRANCH   4   6
ATOM      6  CA  PHE A   3      29.014   1.250 -14.361  0.00  0.00     0.223 C 
BRANCH   6   7
ATOM      7  N   PHE A   3      28.909   0.424 -13.162  0.00  0.00    -0.262 N 
ATOM      8  HN  PHE A   3      28.868   0.911 -12.278  0.00  0.00     0.189 HD
ATOM      9  C   ALA A   2      29.011  -0.911 -13.160  0.00  0.00     0.204 C 
ATOM     10  O   ALA A   2      29.101  -1.582 -14.188  0.00  0.00    -0.394 OA
BRANCH   9  11
ATOM     11  CA  ALA A   2      28.995  -1.598 -11.794  0.00  0.00     0.208 C 
ATOM     12  CB  ALA A   2      28.515  -0.634 -10.705  0.00  0.00     0.059 C 
BRANCH  11  13
ATOM     13  N   ALA A   2      30.342  -2.060 -11.491  0.00  0.00    -0.261 N 
ATOM     14  HN  ALA A   2      30.428  -3.050 -11.304  0.00  0.00     0.189 HD
ATOM     15  C   PRO A   1      31.405  -1.257 -11.354  0.00  0.00     0.241 C 
ATOM     16  O   PRO A   1      31.368  -0.040 -11.541  0.00  0.00    -0.390 OA
BRANCH  15  17
ATOM     17  CA  PRO A   1      32.729  -1.905 -10.950  0.00  0.00     0.309 C 
ATOM     18  CB  PRO A   1      33.845  -1.622 -11.970  0.00  0.00     0.098 C 
ATOM     19  CG  PRO A   1      33.907  -2.901 -12.804  0.00  0.00     0.074 C 
ATOM     20  CD  PRO A   1      33.573  -3.951 -11.752  0.00  0.00     0.280 C 
ATOM     21  N   PRO A   1      32.528  -3.367 -10.892  0.00  0.00    -0.414 N 
ATOM     22  H1  PRO A   1      32.554  -3.724  -9.947  0.00  0.00     0.369 HD
ATOM     23  H2  PRO A   1      31.606  -3.521 -11.298  0.00  0.00     0.369 HD
ENDBRANCH  15  17
ENDBRANCH  11  13
ENDBRANCH   9  11
ENDBRANCH   6   7
BRANCH   6  24
ATOM     24  CB  PHE A   3      27.650   1.326 -15.072  0.00  0.00     0.116 C 
BRANCH  24  25
ATOM     25  CG  PHE A   3      26.432   1.562 -14.190  0.00  0.00    -0.039 A 
ATOM     26  CD1 PHE A   3      26.170   2.859 -13.706  0.00  0.00    -0.004 A 
ATOM     27  CE1 PHE A   3      25.079   3.094 -12.852  0.00  0.00    -0.009 A 
ATOM     28  CZ  PHE A   3      24.234   2.034 -12.482  0.00  0.00    -0.013 A 
ATOM     29  CE2 PHE A   3      24.486   0.738 -12.963  0.00  0.00    -0.009 A 
ATOM     30  CD2 PHE A   3      25.585   0.500 -13.807  0.00  0.00    -0.004 A 
ENDBRANCH  24  25
ENDBRANCH   6  24
ENDBRANCH   4   6
ENDBRANCH   1   2
BRANCH   1  31
ATOM     31  CB  HIS A   4      30.620   4.068 -10.740  0.00  0.00     0.141 C 
BRANCH  31  32
ATOM     32  CG  HIS A   4      29.178   4.394 -10.413  0.00  0.00     0.056 A 
ATOM     33  ND1 HIS A   4      28.305   5.090 -11.218  0.00  0.00    -0.262 N 
ATOM     34  CE1 HIS A   4      27.140   5.208 -10.559  0.00  0.00     0.202 A 
ATOM     35  HD1 HIS A   4      28.502   5.440 -12.146  0.00  0.00     0.239 HD
ATOM     36  NE2 HIS A   4      27.217   4.636  -9.347  0.00  0.00    -0.344 NA
ATOM     37  CD2 HIS A   4      28.506   4.106  -9.254  0.00  0.00     0.005 A 
ENDBRANCH  31  32
ENDBRANCH   1  31
BRANCH   1  38
ATOM     38  C   HIS A   4      32.401   3.632 -12.542  0.00  0.00     0.206 C 
ATOM     39  O   HIS A   4      32.809   2.600 -13.079  0.00  0.00    -0.394 OA
ATOM     40  N   SER A   5      33.215   4.629 -12.170  0.00  0.00    -0.261 N 
ATOM     41  HN  SER A   5      32.818   5.447 -11.730  0.00  0.00     0.188 HD
BRANCH  40  42
ATOM     42  CA  SER A   5      34.662   4.644 -12.345  0.00  0.00     0.236 C 
BRANCH  42  43
ATOM     43  CB  SER A   5      35.134   6.108 -12.346  0.00  0.00     0.206 C 
BRANCH  43  44
ATOM     44  OG  SER A   5      36.309   6.284 -11.575  0.00  0.00    -0.390 OA
ATOM     45  HG  SER A   5      37.069   6.060 -12.118  0.00  0.00     0.210 HD
ENDBRANCH  43  44
ENDBRANCH  42  43
BRANCH  42  46
ATOM     46  C   SER A   5      35.351   3.784 -11.267  0.00  0.00     0.206 C 
ATOM     47  O   SER A   5      34.905   3.711 -10.120  0.00  0.00    -0.394 OA
ATOM     48  N   TRP A   6      36.455   3.128 -11.651  0.00  0.00    -0.263 N 
ATOM     49  HN  TRP A   6      36.741   3.213 -12.620  0.00  0.00     0.188 HD
BRANCH  48  50
ATOM     50  CA  TRP A   6      37.177   2.161 -10.834  0.00  0.00     0.217 C 
BRANCH  50  51
ATOM     51  CB  TRP A   6      36.857   0.740 -11.328  0.00  0.00     0.084 C 
BRANCH  51  52
ATOM     52  CG  TRP A   6      37.505   0.253 -12.598  0.00  0.00    -0.042 A 
ATOM     53  CD1 TRP A   6      37.046   0.562 -13.831  0.00  0.00     0.096 A 
ATOM     54  NE1 TRP A   6      37.851   0.004 -14.797  0.00  0.00    -0.289 N 
ATOM     55  CE2 TRP A   6      38.890  -0.706 -14.239  0.00  0.00     0.060 A 
ATOM     56  HE1 TRP A   6      37.687   0.131 -15.786  0.00  0.00     0.222 HD
ATOM     57  CD2 TRP A   6      38.697  -0.578 -12.827  0.00  0.00    -0.021 A 
ATOM     58  CZ2 TRP A   6      39.950  -1.434 -14.800  0.00  0.00     0.010 A 
ATOM     59  CE3 TRP A   6      39.644  -1.238 -12.008  0.00  0.00    -0.021 A 
ATOM     60  CZ3 TRP A   6      40.705  -1.983 -12.559  0.00  0.00    -0.028 A 
ATOM     61  CH2 TRP A   6      40.862  -2.080 -13.951  0.00  0.00    -0.024 A 
ENDBRANCH  51  52
ENDBRANCH  50  51
BRANCH  50  62
ATOM     62  C   TRP A   6      38.685   2.469 -10.854  0.00  0.00     0.205 C 
ATOM     63  O   TRP A   6      39.170   3.265 -11.662  0.00  0.00    -0.394 OA
ATOM     64  N   ALA A   7      39.436   1.817  -9.956  0.00  0.00    -0.259 N 
ATOM     65  HN  ALA A   7      38.949   1.220  -9.293  0.00  0.00     0.189 HD
BRANCH  64  66
ATOM     66  CA  ALA A   7      40.855   2.046  -9.703  0.00  0.00     0.266 C 
ATOM     67  CB  ALA A   7      41.345   0.990  -8.699  0.00  0.00     0.065 C 
BRANCH  66  68
ATOM     68  C   ALA A   7      41.677   2.041 -11.009  0.00  0.00     0.390 C 
ATOM     69  O   ALA A   7      41.924   1.000 -11.612  0.00  0.00    -0.295 OA
ATOM     70  N   NHH A   8      42.181   3.204 -11.421  0.00  0.00    -0.205 N 
ATOM     71  HN1 NHH A   8      41.906   4.054 -10.924  0.00  0.00     0.454 HD
ATOM     72  HN2 NHH A   8      42.728   3.246 -12.265  0.00  0.00     0.454 HD
ENDBRANCH  66  68
ENDBRANCH  64  66
ENDBRANCH  50  62
ENDBRANCH  48  50
ENDBRANCH  42  46
ENDBRANCH  40  42
ENDBRANCH   1  38
TORSDOF 21
ENDMDL
MODEL 8
REMARK VINA RESULT:     -10.3      1.284      2.218
REMARK  21 active torsions:
REMARK  status: ('A' for Active; 'I' for Inactive)
REMARK    1  A    between atoms: CA_2  and  C_3 
REMARK       I    between atoms: C_3  and  N_10 
REMARK    2  A    between atoms: CA_11  and  N_10 
REMARK    3  A    between atoms: CA_11  and  C_12 
REMARK       I    between atoms: C_12  and  N_16 
REMARK    4  A    between atoms: CA_17  and  N_16 
REMARK    5  A    between atoms: CA_17  and  CB_20 
REMARK    6  A    between atoms: CA_17  and  C_18 
REMARK       I    between atoms: C_18  and  N_28 
REMARK    7  A    between atoms: CB_20  and  CG_21 
REMARK    8  A    between atoms: CA_29  and  N_28 
REMARK    9  A    between atoms: CA_29  and  CB_32 
REMARK   10  A    between atoms: CA_29  and  C_30 
REMARK       I    between atoms: C_30  and  N_40 
REMARK   11  A    between atoms: CB_32  and  CG_33 
REMARK   12  A    between atoms: CA_41  and  N_40 
REMARK   13  A    between atoms: CA_41  and  CB_44 
REMARK   14  A    between atoms: CA_41  and  C_42 
REMARK       I    between atoms: C_42  and  N_48 
REMARK   15  A    between atoms: CB_44  and  OG_45 
REMARK   16  A    between atoms: CA_49  and  N_48 
REMARK   17  A    between atoms: CA_49  and  CB_52 
REMARK   18  A    between atoms: CA_49  and  C_50 
REMARK       I    between atoms: C_50  and  N_64 
REMARK   19  A    between atoms: CB_52  and  CG_53 
REMARK   20  A    between atoms: CA_65  and  N_64 
REMARK   21  A    between atoms: CA_65  and  C_66 
REMARK       I    between atoms: C_66  and  N_70 
ROOT
ATOM      1  CA  HIS A   4      34.892   3.464 -11.453  0.00  0.00     0.225 C 
ENDROOT
BRANCH   1   2
ATOM      2  N   HIS A   4      35.984   2.514 -11.658  0.00  0.00    -0.262 N 
ATOM      3  HN  HIS A   4      36.148   2.235 -12.614  0.00  0.00     0.189 HD
ATOM      4  C   PHE A   3      36.637   1.851 -10.690  0.00  0.00     0.206 C 
ATOM      5  O   PHE A   3      36.524   2.108  -9.494  0.00  0.00    -0.394 OA
BRANCH   4   6
ATOM      6  CA  PHE A   3      37.501   0.669 -11.132  0.00  0.00     0.223 C 
BRANCH   6   7
ATOM      7  N   PHE A   3      36.721  -0.145 -12.059  0.00  0.00    -0.262 N 
ATOM      8  HN  PHE A   3      36.184   0.350 -12.757  0.00  0.00     0.189 HD
ATOM      9  C   ALA A   2      36.566  -1.470 -11.945  0.00  0.00     0.204 C 
ATOM     10  O   ALA A   2      37.153  -2.147 -11.101  0.00  0.00    -0.394 OA
BRANCH   9  11
ATOM     11  CA  ALA A   2      35.616  -2.138 -12.940  0.00  0.00     0.208 C 
ATOM     12  CB  ALA A   2      35.060  -1.112 -13.933  0.00  0.00     0.059 C 
BRANCH  11  13
ATOM     13  N   ALA A   2      34.525  -2.754 -12.199  0.00  0.00    -0.261 N 
ATOM     14  HN  ALA A   2      34.072  -2.158 -11.520  0.00  0.00     0.189 HD
ATOM     15  C   PRO A   1      34.178  -4.044 -12.296  0.00  0.00     0.241 C 
ATOM     16  O   PRO A   1      34.703  -4.834 -13.082  0.00  0.00    -0.390 OA
BRANCH  15  17
ATOM     17  CA  PRO A   1      33.061  -4.543 -11.379  0.00  0.00     0.309 C 
ATOM     18  CB  PRO A   1      31.984  -5.322 -12.153  0.00  0.00     0.098 C 
ATOM     19  CG  PRO A   1      30.862  -4.302 -12.339  0.00  0.00     0.074 C 
ATOM     20  CD  PRO A   1      30.974  -3.506 -11.045  0.00  0.00     0.280 C 
ATOM     21  N   PRO A   1      32.414  -3.368 -10.760  0.00  0.00    -0.414 N 
ATOM     22  H1  PRO A   1      32.612  -3.294  -9.772  0.00  0.00     0.369 HD
ATOM     23  H2  PRO A   1      32.799  -2.565 -11.255  0.00  0.00     0.369 HD
ENDBRANCH  15  17
ENDBRANCH  11  13
ENDBRANCH   9  11
ENDBRANCH   6   7
BRANCH   6  24
ATOM     24  CB  PHE A   3      38.822   1.106 -11.793  0.00  0.00     0.116 C 
BRANCH  24  25
ATOM     25  CG  PHE A   3      39.618   0.023 -12.509  0.00  0.00    -0.039 A 
ATOM     26  CD1 PHE A   3      39.543  -0.076 -13.912  0.00  0.00    -0.004 A 
ATOM     27  CE1 PHE A   3      40.231  -1.096 -14.592  0.00  0.00    -0.009 A 
ATOM     28  CZ  PHE A   3      41.008  -2.020 -13.874  0.00  0.00    -0.013 A 
ATOM     29  CE2 PHE A   3      41.090  -1.927 -12.475  0.00  0.00    -0.009 A 
ATOM     30  CD2 PHE A   3      40.391  -0.915 -11.792  0.00  0.00    -0.004 A 
ENDBRANCH  24  25
ENDBRANCH   6  24
ENDBRANCH   4   6
ENDBRANCH   1   2
BRANCH   1  31
ATOM     31  CB  HIS A   4      35.354   4.883 -11.841  0.00  0.00     0.141 C 
BRANCH  31  32
ATOM     32  CG  HIS A   4      34.656   6.005 -11.103  0.00  0.00     0.056 A 
ATOM     33  ND1 HIS A   4      34.147   5.938  -9.826  0.00  0.00    -0.262 N 
ATOM     34  CE1 HIS A   4      33.569   7.119  -9.549  0.00  0.00     0.202 A 
ATOM     35  HD1 HIS A   4      34.206   5.144  -9.203  0.00  0.00     0.239 HD
ATOM     36  NE2 HIS A   4      33.662   7.953 -10.596  0.00  0.00    -0.344 NA
ATOM     37  CD2 HIS A   4      34.362   7.255 -11.582  0.00  0.00     0.005 A 
ENDBRANCH  31  32
ENDBRANCH   1  31
BRANCH   1  38
ATOM     38  C   HIS A   4      33.592   3.037 -12.150  0.00  0.00     0.206 C 
ATOM     39  O   HIS A   4      33.190   3.628 -13.154  0.00  0.00    -0.394 OA
ATOM     40  N   SER A   5      32.923   2.020 -11.589  0.00  0.00    -0.261 N 
ATOM     41  HN  SER A   5      33.303   1.580 -10.764  0.00  0.00     0.188 HD
BRANCH  40  42
ATOM     42  CA  SER A   5      31.660   1.474 -12.073  0.00  0.00     0.236 C 
BRANCH  42  43
ATOM     43  CB  SER A   5      31.702  -0.055 -11.912  0.00  0.00     0.206 C 
BRANCH  43  44
ATOM     44  OG  SER A   5      32.751  -0.467 -11.054  0.00  0.00    -0.390 OA
ATOM     45  HG  SER A   5      33.191  -1.224 -11.447  0.00  0.00     0.210 HD
ENDBRANCH  43  44
ENDBRANCH  42  43
BRANCH  42  46
ATOM     46  C   SER A   5      30.469   2.129 -11.348  0.00  0.00     0.206 C 
ATOM     47  O   SER A   5      30.542   2.465 -10.165  0.00  0.00    -0.394 OA
ATOM     48  N   TRP A   6      29.359   2.308 -12.077  0.00  0.00    -0.263 N 
ATOM     49  HN  TRP A   6      29.387   2.035 -13.053  0.00  0.00     0.188 HD
BRANCH  48  50
ATOM     50  CA  TRP A   6      28.173   3.026 -11.629  0.00  0.00     0.217 C 
BRANCH  50  51
ATOM     51  CB  TRP A   6      28.203   4.457 -12.193  0.00  0.00     0.084 C 
BRANCH  51  52
ATOM     52  CG  TRP A   6      29.041   5.493 -11.491  0.00  0.00    -0.042 A 
ATOM     53  CD1 TRP A   6      30.261   5.881 -11.925  0.00  0.00     0.096 A 
ATOM     54  NE1 TRP A   6      30.775   6.857 -11.105  0.00  0.00    -0.289 N 
ATOM     55  CE2 TRP A   6      29.908   7.163 -10.080  0.00  0.00     0.060 A 
ATOM     56  HE1 TRP A   6      31.673   7.292 -11.268  0.00  0.00     0.222 HD
ATOM     57  CD2 TRP A   6      28.786   6.301 -10.287  0.00  0.00    -0.021 A 
ATOM     58  CZ2 TRP A   6      29.982   8.074  -9.015  0.00  0.00     0.010 A 
ATOM     59  CE3 TRP A   6      27.734   6.411  -9.346  0.00  0.00    -0.021 A 
ATOM     60  CZ3 TRP A   6      27.803   7.313  -8.266  0.00  0.00    -0.028 A 
ATOM     61  CH2 TRP A   6      28.921   8.146  -8.100  0.00  0.00    -0.024 A 
ENDBRANCH  51  52
ENDBRANCH  50  51
BRANCH  50  62
ATOM     62  C   TRP A   6      26.902   2.257 -12.033  0.00  0.00     0.205 C 
ATOM     63  O   TRP A   6      26.688   1.935 -13.203  0.00  0.00    -0.394 OA
ATOM     64  N   ALA A   7      26.043   1.972 -11.044  0.00  0.00    -0.259 N 
ATOM     65  HN  ALA A   7      26.321   2.228 -10.102  0.00  0.00     0.189 HD
BRANCH  64  66
ATOM     66  CA  ALA A   7      24.847   1.143 -11.166  0.00  0.00     0.266 C 
ATOM     67  CB  ALA A   7      24.015   1.664 -12.348  0.00  0.00     0.065 C 
BRANCH  66  68
ATOM     68  C   ALA A   7      25.200  -0.353 -11.310  0.00  0.00     0.390 C 
ATOM     69  O   ALA A   7      26.195  -0.835 -10.776  0.00  0.00    -0.295 OA
ATOM     70  N   NHH A   8      24.425  -1.092 -12.103  0.00  0.00    -0.205 N 
ATOM     71  HN1 NHH A   8      23.576  -0.667 -12.483  0.00  0.00     0.454 HD
ATOM     72  HN2 NHH A   8      24.622  -2.071 -12.230  0.00  0.00     0.454 HD
ENDBRANCH  66  68
ENDBRANCH  64  66
ENDBRANCH  50  62
ENDBRANCH  48  50
ENDBRANCH  42  46
ENDBRANCH  40  42
ENDBRANCH   1  38
TORSDOF 21
ENDMDL
MODEL 9
REMARK VINA RESULT:     -10.3      2.855      7.371
REMARK  21 active torsions:
REMARK  status: ('A' for Active; 'I' for Inactive)
REMARK    1  A    between atoms: CA_2  and  C_3 
REMARK       I    between atoms: C_3  and  N_10 
REMARK    2  A    between atoms: CA_11  and  N_10 
REMARK    3  A    between atoms: CA_11  and  C_12 
REMARK       I    between atoms: C_12  and  N_16 
REMARK    4  A    between atoms: CA_17  and  N_16 
REMARK    5  A    between atoms: CA_17  and  CB_20 
REMARK    6  A    between atoms: CA_17  and  C_18 
REMARK       I    between atoms: C_18  and  N_28 
REMARK    7  A    between atoms: CB_20  and  CG_21 
REMARK    8  A    between atoms: CA_29  and  N_28 
REMARK    9  A    between atoms: CA_29  and  CB_32 
REMARK   10  A    between atoms: CA_29  and  C_30 
REMARK       I    between atoms: C_30  and  N_40 
REMARK   11  A    between atoms: CB_32  and  CG_33 
REMARK   12  A    between atoms: CA_41  and  N_40 
REMARK   13  A    between atoms: CA_41  and  CB_44 
REMARK   14  A    between atoms: CA_41  and  C_42 
REMARK       I    between atoms: C_42  and  N_48 
REMARK   15  A    between atoms: CB_44  and  OG_45 
REMARK   16  A    between atoms: CA_49  and  N_48 
REMARK   17  A    between atoms: CA_49  and  CB_52 
REMARK   18  A    between atoms: CA_49  and  C_50 
REMARK       I    between atoms: C_50  and  N_64 
REMARK   19  A    between atoms: CB_52  and  CG_53 
REMARK   20  A    between atoms: CA_65  and  N_64 
REMARK   21  A    between atoms: CA_65  and  C_66 
REMARK       I    between atoms: C_66  and  N_70 
ROOT
ATOM      1  CA  HIS A   4      35.004   1.769 -12.014  0.00  0.00     0.225 C 
ENDROOT
BRANCH   1   2
ATOM      2  N   HIS A   4      33.673   1.738 -12.618  0.00  0.00    -0.262 N 
ATOM      3  HN  HIS A   4      33.551   2.314 -13.437  0.00  0.00     0.189 HD
ATOM      4  C   PHE A   3      32.580   1.181 -12.074  0.00  0.00     0.206 C 
ATOM      5  O   PHE A   3      32.607   0.454 -11.083  0.00  0.00    -0.394 OA
BRANCH   4   6
ATOM      6  CA  PHE A   3      31.236   1.551 -12.703  0.00  0.00     0.223 C 
BRANCH   6   7
ATOM      7  N   PHE A   3      30.205   0.707 -12.107  0.00  0.00    -0.262 N 
ATOM      8  HN  PHE A   3      30.236   0.592 -11.104  0.00  0.00     0.189 HD
ATOM      9  C   ALA A   2      29.332  -0.022 -12.813  0.00  0.00     0.204 C 
ATOM     10  O   ALA A   2      29.249   0.029 -14.041  0.00  0.00    -0.394 OA
BRANCH   9  11
ATOM     11  CA  ALA A   2      28.401  -0.938 -12.018  0.00  0.00     0.208 C 
ATOM     12  CB  ALA A   2      27.570  -0.131 -11.015  0.00  0.00     0.059 C 
BRANCH  11  13
ATOM     13  N   ALA A   2      29.208  -1.924 -11.316  0.00  0.00    -0.261 N 
ATOM     14  HN  ALA A   2      29.326  -1.761 -10.325  0.00  0.00     0.189 HD
ATOM     15  C   PRO A   1      29.857  -2.934 -11.909  0.00  0.00     0.241 C 
ATOM     16  O   PRO A   1      29.781  -3.178 -13.115  0.00  0.00    -0.390 OA
BRANCH  15  17
ATOM     17  CA  PRO A   1      30.729  -3.827 -11.027  0.00  0.00     0.309 C 
ATOM     18  CB  PRO A   1      31.965  -3.082 -10.494  0.00  0.00     0.098 C 
ATOM     19  CG  PRO A   1      33.091  -3.539 -11.421  0.00  0.00     0.074 C 
ATOM     20  CD  PRO A   1      32.670  -4.975 -11.705  0.00  0.00     0.280 C 
ATOM     21  N   PRO A   1      31.202  -4.962 -11.845  0.00  0.00    -0.414 N 
ATOM     22  H1  PRO A   1      30.775  -5.837 -11.575  0.00  0.00     0.369 HD
ATOM     23  H2  PRO A   1      30.938  -4.725 -12.800  0.00  0.00     0.369 HD
ENDBRANCH  15  17
ENDBRANCH  11  13
ENDBRANCH   9  11
ENDBRANCH   6   7
BRANCH   6  24
ATOM     24  CB  PHE A   3      30.876   3.037 -12.519  0.00  0.00     0.116 C 
BRANCH  24  25
ATOM     25  CG  PHE A   3      30.329   3.764 -13.739  0.00  0.00    -0.039 A 
ATOM     26  CD1 PHE A   3      29.350   3.138 -14.536  0.00  0.00    -0.004 A 
ATOM     27  CE1 PHE A   3      28.863   3.769 -15.694  0.00  0.00    -0.009 A 
ATOM     28  CZ  PHE A   3      29.346   5.037 -16.060  0.00  0.00    -0.013 A 
ATOM     29  CE2 PHE A   3      30.321   5.669 -15.270  0.00  0.00    -0.009 A 
ATOM     30  CD2 PHE A   3      30.818   5.033 -14.118  0.00  0.00    -0.004 A 
ENDBRANCH  24  25
ENDBRANCH   6  24
ENDBRANCH   4   6
ENDBRANCH   1   2
BRANCH   1  31
ATOM     31  CB  HIS A   4      36.064   1.392 -13.068  0.00  0.00     0.141 C 
BRANCH  31  32
ATOM     32  CG  HIS A   4      37.202   0.538 -12.552  0.00  0.00     0.056 A 
ATOM     33  ND1 HIS A   4      38.248   0.972 -11.769  0.00  0.00    -0.262 N 
ATOM     34  CE1 HIS A   4      39.068  -0.071 -11.559  0.00  0.00     0.202 A 
ATOM     35  HD1 HIS A   4      38.371   1.908 -11.408  0.00  0.00     0.239 HD
ATOM     36  NE2 HIS A   4      38.615  -1.169 -12.186  0.00  0.00    -0.344 NA
ATOM     37  CD2 HIS A   4      37.423  -0.790 -12.808  0.00  0.00     0.005 A 
ENDBRANCH  31  32
ENDBRANCH   1  31
BRANCH   1  38
ATOM     38  C   HIS A   4      35.304   3.094 -11.298  0.00  0.00     0.206 C 
ATOM     39  O   HIS A   4      36.302   3.214 -10.585  0.00  0.00    -0.394 OA
ATOM     40  N   SER A   5      34.413   4.079 -11.473  0.00  0.00    -0.261 N 
ATOM     41  HN  SER A   5      33.612   3.917 -12.067  0.00  0.00     0.188 HD
BRANCH  40  42
ATOM     42  CA  SER A   5      34.493   5.404 -10.869  0.00  0.00     0.236 C 
BRANCH  42  43
ATOM     43  CB  SER A   5      35.441   6.267 -11.719  0.00  0.00     0.206 C 
BRANCH  43  44
ATOM     44  OG  SER A   5      35.099   6.228 -13.093  0.00  0.00    -0.390 OA
ATOM     45  HG  SER A   5      34.581   5.437 -13.259  0.00  0.00     0.210 HD
ENDBRANCH  43  44
ENDBRANCH  42  43
BRANCH  42  46
ATOM     46  C   SER A   5      33.088   6.018 -10.713  0.00  0.00     0.206 C 
ATOM     47  O   SER A   5      32.401   6.312 -11.693  0.00  0.00    -0.394 OA
ATOM     48  N   TRP A   6      32.664   6.210  -9.456  0.00  0.00    -0.263 N 
ATOM     49  HN  TRP A   6      33.273   5.912  -8.702  0.00  0.00     0.188 HD
BRANCH  48  50
ATOM     50  CA  TRP A   6      31.324   6.648  -9.085  0.00  0.00     0.217 C 
BRANCH  50  51
ATOM     51  CB  TRP A   6      30.520   5.442  -8.570  0.00  0.00     0.084 C 
BRANCH  51  52
ATOM     52  CG  TRP A   6      29.456   4.851  -9.458  0.00  0.00    -0.042 A 
ATOM     53  CD1 TRP A   6      28.914   3.629  -9.255  0.00  0.00     0.096 A 
ATOM     54  NE1 TRP A   6      27.952   3.367 -10.201  0.00  0.00    -0.289 N 
ATOM     55  CE2 TRP A   6      27.810   4.416 -11.081  0.00  0.00     0.060 A 
ATOM     56  HE1 TRP A   6      27.416   2.510 -10.214  0.00  0.00     0.222 HD
ATOM     57  CD2 TRP A   6      28.767   5.386 -10.643  0.00  0.00    -0.021 A 
ATOM     58  CZ2 TRP A   6      26.974   4.618 -12.190  0.00  0.00     0.010 A 
ATOM     59  CE3 TRP A   6      28.833   6.580 -11.399  0.00  0.00    -0.021 A 
ATOM     60  CZ3 TRP A   6      28.008   6.789 -12.522  0.00  0.00    -0.028 A 
ATOM     61  CH2 TRP A   6      27.078   5.814 -12.917  0.00  0.00    -0.024 A 
ENDBRANCH  51  52
ENDBRANCH  50  51
BRANCH  50  62
ATOM     62  C   TRP A   6      31.404   7.790  -8.055  0.00  0.00     0.205 C 
ATOM     63  O   TRP A   6      31.305   8.971  -8.394  0.00  0.00    -0.394 OA
ATOM     64  N   ALA A   7      31.598   7.425  -6.780  0.00  0.00    -0.259 N 
ATOM     65  HN  ALA A   7      31.616   6.429  -6.582  0.00  0.00     0.189 HD
BRANCH  64  66
ATOM     66  CA  ALA A   7      31.573   8.317  -5.625  0.00  0.00     0.266 C 
ATOM     67  CB  ALA A   7      30.245   8.110  -4.881  0.00  0.00     0.065 C 
BRANCH  66  68
ATOM     68  C   ALA A   7      32.798   8.104  -4.711  0.00  0.00     0.390 C 
ATOM     69  O   ALA A   7      32.675   7.783  -3.532  0.00  0.00    -0.295 OA
ATOM     70  N   NHH A   8      34.001   8.357  -5.227  0.00  0.00    -0.205 N 
ATOM     71  HN1 NHH A   8      34.064   8.566  -6.226  0.00  0.00     0.454 HD
ATOM     72  HN2 NHH A   8      34.827   8.236  -4.665  0.00  0.00     0.454 HD
ENDBRANCH  66  68
ENDBRANCH  64  66
ENDBRANCH  50  62
ENDBRANCH  48  50
ENDBRANCH  42  46
ENDBRANCH  40  42
ENDBRANCH   1  38
TORSDOF 21
ENDMDL
