MODEL 1
REMARK VINA RESULT:     -10.4      0.000      0.000
REMARK  21 active torsions:
REMARK  status: ('A' for Active; 'I' for Inactive)
REMARK    1  A    between atoms: CA_2  and  C_3 
REMARK       I    between atoms: C_3  and  N_10 
REMARK    2  A    between atoms: CA_11  and  N_10 
REMARK    3  A    between atoms: CA_11  and  C_12 
REMARK       I    between atoms: C_12  and  N_16 
REMARK    4  A    between atoms: CA_17  and  N_16 
REMARK    5  A    between atoms: CA_17  and  C_18 
REMARK       I    between atoms: C_18  and  N_22 
REMARK    6  A    between atoms: CA_23  and  N_22 
REMARK    7  A    between atoms: CA_23  and  CB_26 
REMARK    8  A    between atoms: CA_23  and  C_24 
REMARK       I    between atoms: C_24  and  N_34 
REMARK    9  A    between atoms: CB_26  and  CG_27 
REMARK   10  A    between atoms: CA_35  and  N_34 
REMARK   11  A    between atoms: CA_35  and  CB_38 
REMARK   12  A    between atoms: CA_35  and  C_36 
REMARK       I    between atoms: C_36  and  N_42 
REMARK   13  A    between atoms: CB_38  and  OG_39 
REMARK   14  A    between atoms: CA_43  and  N_42 
REMARK   15  A    between atoms: CA_43  and  CB_46 
REMARK   16  A    between atoms: CA_43  and  C_44 
REMARK       I    between atoms: C_44  and  N_58 
REMARK   17  A    between atoms: CB_46  and  CG_47 
REMARK   18  A    between atoms: CA_59  and  N_58 
REMARK   19  A    between atoms: CA_59  and  CB_62 
REMARK   20  A    between atoms: CA_59  and  C_60 
REMARK       I    between atoms: C_60  and  N_66 
REMARK   21  A    between atoms: CB_62  and  OG_63 
ROOT
ATOM      1  C   HIS A   4      32.502   3.983 -12.477  0.00  0.00     0.569 C 
ATOM      2  O   HIS A   4      32.715   4.174 -13.673  0.00  0.00    -0.570 OA
ATOM      3  N   SER A   5      33.408   3.361 -11.655  0.00  0.00    -0.730 N 
ATOM      4  HN  SER A   5      33.147   3.100 -10.704  0.00  0.00     0.370 HD
ENDROOT
BRANCH   3   5
ATOM      5  CA  SER A   5      34.626   2.729 -12.174  0.00  0.00     0.361 C 
BRANCH   5   6
ATOM      6  CB  SER A   5      35.887   3.403 -11.624  0.00  0.00     0.280 C 
BRANCH   6   7
ATOM      7  OG  SER A   5      37.063   2.666 -11.957  0.00  0.00    -0.680 OA
ATOM      8  HG  SER A   5      37.616   2.643 -11.155  0.00  0.00     0.400 HD
ENDBRANCH   6   7
ENDBRANCH   5   6
BRANCH   5   9
ATOM      9  C   SER A   5      34.553   1.234 -11.811  0.00  0.00     0.569 C 
ATOM     10  O   SER A   5      33.685   0.797 -11.051  0.00  0.00    -0.570 OA
ATOM     11  N   TRP A   6      35.468   0.419 -12.424  0.00  0.00    -0.730 N 
ATOM     12  HN  TRP A   6      36.163   0.787 -13.067  0.00  0.00     0.370 HD
BRANCH  11  13
ATOM     13  CA  TRP A   6      35.532  -1.019 -12.154  0.00  0.00     0.361 C 
BRANCH  13  14
ATOM     14  CB  TRP A   6      34.816  -1.827 -13.249  0.00  0.00     0.181 C 
BRANCH  14  15
ATOM     15  CG  TRP A   6      34.130  -3.053 -12.732  0.00  0.00    -0.181 A 
ATOM     16  CD1 TRP A   6      34.735  -4.247 -12.392  0.00  0.00    -0.152 A 
ATOM     17  NE1 TRP A   6      33.757  -5.137 -12.032  0.00  0.00     0.033 N 
ATOM     18  CE2 TRP A   6      32.519  -4.543 -12.116  0.00  0.00    -0.152 A 
ATOM     19  HE1 TRP A   6      33.913  -6.098 -11.763  0.00  0.00     0.270 HD
ATOM     20  CD2 TRP A   6      32.721  -3.230 -12.540  0.00  0.00     0.000 A 
ATOM     21  CZ2 TRP A   6      31.248  -5.071 -11.860  0.00  0.00     0.000 A 
ATOM     22  CE3 TRP A   6      31.593  -2.402 -12.718  0.00  0.00     0.000 A 
ATOM     23  CZ3 TRP A   6      30.315  -2.913 -12.464  0.00  0.00     0.000 A 
ATOM     24  CH2 TRP A   6      30.148  -4.229 -12.041  0.00  0.00     0.000 A 
ENDBRANCH  14  15
ENDBRANCH  13  14
BRANCH  13  25
ATOM     25  C   TRP A   6      37.026  -1.387 -12.088  0.00  0.00     0.569 C 
ATOM     26  O   TRP A   6      37.494  -2.050 -11.162  0.00  0.00    -0.570 OA
ATOM     27  N   SER A   7      37.792  -0.917 -13.128  0.00  0.00    -0.730 N 
ATOM     28  HN  SER A   7      37.404  -0.185 -13.723  0.00  0.00     0.370 HD
BRANCH  27  29
ATOM     29  CA  SER A   7      39.257  -0.939 -13.078  0.00  0.00     0.361 C 
BRANCH  29  30
ATOM     30  CB  SER A   7      39.873  -1.250 -14.446  0.00  0.00     0.280 C 
BRANCH  30  31
ATOM     31  OG  SER A   7      41.271  -0.960 -14.473  0.00  0.00    -0.680 OA
ATOM     32  HG  SER A   7      41.348   0.013 -14.471  0.00  0.00     0.400 HD
ENDBRANCH  30  31
ENDBRANCH  29  30
BRANCH  29  33
ATOM     33  C   SER A   7      39.726   0.424 -12.535  0.00  0.00     0.569 C 
ATOM     34  O   SER A   7      40.255   1.281 -13.244  0.00  0.00    -0.570 OA
ATOM     35  N   NHH A   8      39.495   0.677 -11.214  0.00  0.00    -0.800 N 
ATOM     36  HN1 NHH A   8      39.202  -0.028 -10.554  0.00  0.00     0.370 HD
ATOM     37  HN2 NHH A   8      39.852   1.551 -10.848  0.00  0.00     0.370 HD
ENDBRANCH  29  33
ENDBRANCH  27  29
ENDBRANCH  13  25
ENDBRANCH  11  13
ENDBRANCH   5   9
ENDBRANCH   3   5
BRANCH   1  38
ATOM     38  CA  HIS A   4      31.205   4.443 -11.789  0.00  0.00     0.361 C 
BRANCH  38  39
ATOM     39  N   HIS A   4      30.311   3.287 -11.699  0.00  0.00    -0.730 N 
ATOM     40  HN  HIS A   4      29.576   3.229 -12.402  0.00  0.00     0.370 HD
ATOM     41  C   ALA A   3      30.374   2.376 -10.675  0.00  0.00     0.569 C 
ATOM     42  O   ALA A   3      31.229   2.425  -9.787  0.00  0.00    -0.570 OA
BRANCH  41  43
ATOM     43  CA  ALA A   3      29.303   1.267 -10.711  0.00  0.00     0.361 C 
ATOM     44  CB  ALA A   3      29.833  -0.025 -10.099  0.00  0.00     0.000 C 
BRANCH  43  45
ATOM     45  N   ALA A   3      28.925   1.067 -12.108  0.00  0.00    -0.730 N 
ATOM     46  HN  ALA A   3      29.668   0.762 -12.731  0.00  0.00     0.370 HD
ATOM     47  C   ALA A   2      27.684   1.383 -12.594  0.00  0.00     0.569 C 
ATOM     48  O   ALA A   2      26.769   1.810 -11.887  0.00  0.00    -0.570 OA
BRANCH  47  49
ATOM     49  CA  ALA A   2      27.481   1.158 -14.104  0.00  0.00     0.361 C 
ATOM     50  CB  ALA A   2      28.512   0.187 -14.665  0.00  0.00     0.000 C 
BRANCH  49  51
ATOM     51  N   ALA A   2      27.594   2.472 -14.742  0.00  0.00    -0.730 N 
ATOM     52  HN  ALA A   2      26.731   2.805 -15.173  0.00  0.00     0.370 HD
ATOM     53  C   PRO A   1      28.788   3.101 -14.934  0.00  0.00     0.569 C 
ATOM     54  O   PRO A   1      29.872   2.673 -14.536  0.00  0.00    -0.570 OA
BRANCH  53  55
ATOM     55  CA  PRO A   1      28.754   4.445 -15.680  0.00  0.00     0.564 C 
ATOM     56  CB  PRO A   1      29.982   5.309 -15.428  0.00  0.00     0.000 C 
ATOM     57  CG  PRO A   1      29.590   6.174 -14.240  0.00  0.00     0.000 C 
ATOM     58  CD  PRO A   1      28.145   6.522 -14.525  0.00  0.00     0.503 C 
ATOM     59  N   PRO A   1      27.596   5.279 -15.136  0.00  0.00    -0.906 N 
ATOM     60  H1  PRO A   1      26.876   5.459 -15.844  0.00  0.00     0.450 HD
ATOM     61  H2  PRO A   1      27.147   4.690 -14.405  0.00  0.00     0.450 HD
ENDBRANCH  53  55
ENDBRANCH  49  51
ENDBRANCH  47  49
ENDBRANCH  43  45
ENDBRANCH  41  43
ENDBRANCH  38  39
BRANCH  38  62
ATOM     62  CB  HIS A   4      31.510   5.052 -10.406  0.00  0.00     0.180 C 
BRANCH  62  63
ATOM     63  CG  HIS A   4      30.773   6.330 -10.193  0.00  0.00    -0.332 A 
ATOM     64  ND1 HIS A   4      29.461   6.497 -10.572  0.00  0.00     0.033 N 
ATOM     65  CE1 HIS A   4      29.100   7.772 -10.254  0.00  0.00     0.187 A 
ATOM     66  HD1 HIS A   4      28.886   5.802 -11.043  0.00  0.00     0.270 HD
ATOM     67  NE2 HIS A   4      30.091   8.427  -9.692  0.00  0.00    -0.565 NA
ATOM     68  CD2 HIS A   4      31.135   7.539  -9.642  0.00  0.00     0.227 A 
ENDBRANCH  62  63
ENDBRANCH  38  62
ENDBRANCH   1  38
TORSDOF 21
ENDMDL
MODEL 2
REMARK VINA RESULT:     -10.3      1.618      3.568
REMARK  21 active torsions:
REMARK  status: ('A' for Active; 'I' for Inactive)
REMARK    1  A    between atoms: CA_2  and  C_3 
REMARK       I    between atoms: C_3  and  N_10 
REMARK    2  A    between atoms: CA_11  and  N_10 
REMARK    3  A    between atoms: CA_11  and  C_12 
REMARK       I    between atoms: C_12  and  N_16 
REMARK    4  A    between atoms: CA_17  and  N_16 
REMARK    5  A    between atoms: CA_17  and  C_18 
REMARK       I    between atoms: C_18  and  N_22 
REMARK    6  A    between atoms: CA_23  and  N_22 
REMARK    7  A    between atoms: CA_23  and  CB_26 
REMARK    8  A    between atoms: CA_23  and  C_24 
REMARK       I    between atoms: C_24  and  N_34 
REMARK    9  A    between atoms: CB_26  and  CG_27 
REMARK   10  A    between atoms: CA_35  and  N_34 
REMARK   11  A    between atoms: CA_35  and  CB_38 
REMARK   12  A    between atoms: CA_35  and  C_36 
REMARK       I    between atoms: C_36  and  N_42 
REMARK   13  A    between atoms: CB_38  and  OG_39 
REMARK   14  A    between atoms: CA_43  and  N_42 
REMARK   15  A    between atoms: CA_43  and  CB_46 
REMARK   16  A    between atoms: CA_43  and  C_44 
REMARK       I    between atoms: C_44  and  N_58 
REMARK   17  A    between atoms: CB_46  and  CG_47 
REMARK   18  A    between atoms: CA_59  and  N_58 
REMARK   19  A    between atoms: CA_59  and  CB_62 
REMARK   20  A    between atoms: CA_59  and  C_60 
REMARK       I    between atoms: C_60  and  N_66 
REMARK   21  A    between atoms: CB_62  and  OG_63 
ROOT
ATOM      1  C   HIS A   4      33.312   4.119 -12.437  0.00  0.00     0.569 C 
ATOM      2  O   HIS A   4      33.467   4.139 -13.657  0.00  0.00    -0.570 OA
ATOM      3  N   SER A   5      34.225   3.552 -11.584  0.00  0.00    -0.730 N 
ATOM      4  HN  SER A   5      34.004   3.433 -10.596  0.00  0.00     0.370 HD
ENDROOT
BRANCH   3   5
ATOM      5  CA  SER A   5      35.374   2.782 -12.074  0.00  0.00     0.361 C 
BRANCH   5   6
ATOM      6  CB  SER A   5      36.689   3.294 -11.476  0.00  0.00     0.280 C 
BRANCH   6   7
ATOM      7  OG  SER A   5      37.799   2.501 -11.896  0.00  0.00    -0.680 OA
ATOM      8  HG  SER A   5      37.640   1.599 -11.562  0.00  0.00     0.400 HD
ENDBRANCH   6   7
ENDBRANCH   5   6
BRANCH   5   9
ATOM      9  C   SER A   5      35.110   1.304 -11.731  0.00  0.00     0.569 C 
ATOM     10  O   SER A   5      34.133   0.962 -11.061  0.00  0.00    -0.570 OA
ATOM     11  N   TRP A   6      35.989   0.395 -12.262  0.00  0.00    -0.730 N 
ATOM     12  HN  TRP A   6      36.777   0.687 -12.833  0.00  0.00     0.370 HD
BRANCH  11  13
ATOM     13  CA  TRP A   6      35.875  -1.041 -11.999  0.00  0.00     0.361 C 
BRANCH  13  14
ATOM     14  CB  TRP A   6      35.121  -1.759 -13.130  0.00  0.00     0.181 C 
BRANCH  14  15
ATOM     15  CG  TRP A   6      34.399  -2.989 -12.677  0.00  0.00    -0.181 A 
ATOM     16  CD1 TRP A   6      34.972  -4.207 -12.365  0.00  0.00    -0.152 A 
ATOM     17  NE1 TRP A   6      33.968  -5.089 -12.065  0.00  0.00     0.033 N 
ATOM     18  CE2 TRP A   6      32.745  -4.469 -12.160  0.00  0.00    -0.152 A 
ATOM     19  HE1 TRP A   6      34.099  -6.063 -11.827  0.00  0.00     0.270 HD
ATOM     20  CD2 TRP A   6      32.982  -3.146 -12.530  0.00  0.00     0.000 A 
ATOM     21  CZ2 TRP A   6      31.457  -4.981 -11.958  0.00  0.00     0.000 A 
ATOM     22  CE3 TRP A   6      31.875  -2.290 -12.708  0.00  0.00     0.000 A 
ATOM     23  CZ3 TRP A   6      30.581  -2.784 -12.507  0.00  0.00     0.000 A 
ATOM     24  CH2 TRP A   6      30.378  -4.111 -12.137  0.00  0.00     0.000 A 
ENDBRANCH  14  15
ENDBRANCH  13  14
BRANCH  13  25
ATOM     25  C   TRP A   6      37.313  -1.578 -11.868  0.00  0.00     0.569 C 
ATOM     26  O   TRP A   6      37.645  -2.335 -10.955  0.00  0.00    -0.570 OA
ATOM     27  N   SER A   7      38.190  -1.147 -12.834  0.00  0.00    -0.730 N 
ATOM     28  HN  SER A   7      37.923  -0.346 -13.408  0.00  0.00     0.370 HD
BRANCH  27  29
ATOM     29  CA  SER A   7      39.637  -1.336 -12.701  0.00  0.00     0.361 C 
BRANCH  29  30
ATOM     30  CB  SER A   7      40.330  -1.431 -14.064  0.00  0.00     0.280 C 
BRANCH  30  31
ATOM     31  OG  SER A   7      41.752  -1.393 -13.936  0.00  0.00    -0.680 OA
ATOM     32  HG  SER A   7      42.046  -0.585 -14.396  0.00  0.00     0.400 HD
ENDBRANCH  30  31
ENDBRANCH  29  30
BRANCH  29  33
ATOM     33  C   SER A   7      40.186  -0.168 -11.860  0.00  0.00     0.569 C 
ATOM     34  O   SER A   7      40.458  -0.274 -10.664  0.00  0.00    -0.570 OA
ATOM     35  N   NHH A   8      40.406   1.012 -12.509  0.00  0.00    -0.800 N 
ATOM     36  HN1 NHH A   8      40.072   1.206 -13.442  0.00  0.00     0.370 HD
ATOM     37  HN2 NHH A   8      40.716   1.793 -11.944  0.00  0.00     0.370 HD
ENDBRANCH  29  33
ENDBRANCH  27  29
ENDBRANCH  13  25
ENDBRANCH  11  13
ENDBRANCH   5   9
ENDBRANCH   3   5
BRANCH   1  38
ATOM     38  CA  HIS A   4      32.083   4.745 -11.754  0.00  0.00     0.361 C 
BRANCH  38  39
ATOM     39  N   HIS A   4      31.008   4.820 -12.745  0.00  0.00    -0.730 N 
ATOM     40  HN  HIS A   4      30.999   4.091 -13.457  0.00  0.00     0.370 HD
ATOM     41  C   ALA A   3      30.115   5.860 -12.797  0.00  0.00     0.569 C 
ATOM     42  O   ALA A   3      30.109   6.778 -11.973  0.00  0.00    -0.570 OA
BRANCH  41  43
ATOM     43  CA  ALA A   3      29.099   5.801 -13.956  0.00  0.00     0.361 C 
ATOM     44  CB  ALA A   3      27.904   6.708 -13.683  0.00  0.00     0.000 C 
BRANCH  43  45
ATOM     45  N   ALA A   3      28.677   4.410 -14.100  0.00  0.00    -0.730 N 
ATOM     46  HN  ALA A   3      28.449   3.923 -13.237  0.00  0.00     0.370 HD
ATOM     47  C   ALA A   2      28.699   3.747 -15.298  0.00  0.00     0.569 C 
ATOM     48  O   ALA A   2      29.023   4.281 -16.361  0.00  0.00    -0.570 OA
BRANCH  47  49
ATOM     49  CA  ALA A   2      28.272   2.268 -15.251  0.00  0.00     0.361 C 
ATOM     50  CB  ALA A   2      28.102   1.694 -16.651  0.00  0.00     0.000 C 
BRANCH  49  51
ATOM     51  N   ALA A   2      27.011   2.220 -14.507  0.00  0.00    -0.730 N 
ATOM     52  HN  ALA A   2      26.599   3.135 -14.320  0.00  0.00     0.370 HD
ATOM     53  C   PRO A   1      26.534   1.081 -13.928  0.00  0.00     0.569 C 
ATOM     54  O   PRO A   1      27.068  -0.025 -14.028  0.00  0.00    -0.570 OA
BRANCH  53  55
ATOM     55  CA  PRO A   1      25.232   1.203 -13.122  0.00  0.00     0.564 C 
ATOM     56  CB  PRO A   1      25.458   1.495 -11.644  0.00  0.00     0.000 C 
ATOM     57  CG  PRO A   1      25.508   0.119 -10.998  0.00  0.00     0.000 C 
ATOM     58  CD  PRO A   1      24.425  -0.647 -11.726  0.00  0.00     0.503 C 
ATOM     59  N   PRO A   1      24.523  -0.149 -13.127  0.00  0.00    -0.906 N 
ATOM     60  H1  PRO A   1      23.617  -0.115 -13.610  0.00  0.00     0.450 HD
ATOM     61  H2  PRO A   1      25.130  -0.781 -13.689  0.00  0.00     0.450 HD
ENDBRANCH  53  55
ENDBRANCH  49  51
ENDBRANCH  47  49
ENDBRANCH  43  45
ENDBRANCH  41  43
ENDBRANCH  38  39
BRANCH  38  62
ATOM     62  CB  HIS A   4      31.676   3.926 -10.513  0.00  0.00     0.180 C 
BRANCH  62  63
ATOM     63  CG  HIS A   4      30.752   2.811 -10.868  0.00  0.00    -0.332 A 
ATOM     64  ND1 HIS A   4      31.192   1.650 -11.460  0.00  0.00     0.033 N 
ATOM     65  CE1 HIS A   4      30.103   0.856 -11.665  0.00  0.00     0.187 A 
ATOM     66  HD1 HIS A   4      32.151   1.448 -11.733  0.00  0.00     0.270 HD
ATOM     67  NE2 HIS A   4      29.001   1.429 -11.237  0.00  0.00    -0.565 NA
ATOM     68  CD2 HIS A   4      29.392   2.643 -10.733  0.00  0.00     0.227 A 
ENDBRANCH  62  63
ENDBRANCH  38  62
ENDBRANCH   1  38
TORSDOF 21
ENDMDL
MODEL 3
REMARK VINA RESULT:     -10.2      2.281      8.479
REMARK  21 active torsions:
REMARK  status: ('A' for Active; 'I' for Inactive)
REMARK    1  A    between atoms: CA_2  and  C_3 
REMARK       I    between atoms: C_3  and  N_10 
REMARK    2  A    between atoms: CA_11  and  N_10 
REMARK    3  A    between atoms: CA_11  and  C_12 
REMARK       I    between atoms: C_12  and  N_16 
REMARK    4  A    between atoms: CA_17  and  N_16 
REMARK    5  A    between atoms: CA_17  and  C_18 
REMARK       I    between atoms: C_18  and  N_22 
REMARK    6  A    between atoms: CA_23  and  N_22 
REMARK    7  A    between atoms: CA_23  and  CB_26 
REMARK    8  A    between atoms: CA_23  and  C_24 
REMARK       I    between atoms: C_24  and  N_34 
REMARK    9  A    between atoms: CB_26  and  CG_27 
REMARK   10  A    between atoms: CA_35  and  N_34 
REMARK   11  A    between atoms: CA_35  and  CB_38 
REMARK   12  A    between atoms: CA_35  and  C_36 
REMARK       I    between atoms: C_36  and  N_42 
REMARK   13  A    between atoms: CB_38  and  OG_39 
REMARK   14  A    between atoms: CA_43  and  N_42 
REMARK   15  A    between atoms: CA_43  and  CB_46 
REMARK   16  A    between atoms: CA_43  and  C_44 
REMARK       I    between atoms: C_44  and  N_58 
REMARK   17  A    between atoms: CB_46  and  CG_47 
REMARK   18  A    between atoms: CA_59  and  N_58 
REMARK   19  A    between atoms: CA_59  and  CB_62 
REMARK   20  A    between atoms: CA_59  and  C_60 
REMARK       I    between atoms: C_60  and  N_66 
REMARK   21  A    between atoms: CB_62  and  OG_63 
ROOT
ATOM      1  C   HIS A   4      31.548   4.083  -9.526  0.00  0.00     0.569 C 
ATOM      2  O   HIS A   4      31.603   3.723  -8.351  0.00  0.00    -0.570 OA
ATOM      3  N   SER A   5      30.380   4.087 -10.246  0.00  0.00    -0.730 N 
ATOM      4  HN  SER A   5      30.393   4.262 -11.250  0.00  0.00     0.370 HD
ENDROOT
BRANCH   3   5
ATOM      5  CA  SER A   5      29.139   3.508  -9.720  0.00  0.00     0.361 C 
BRANCH   5   6
ATOM      6  CB  SER A   5      28.187   4.592  -9.204  0.00  0.00     0.280 C 
BRANCH   6   7
ATOM      7  OG  SER A   5      26.873   4.078  -8.992  0.00  0.00    -0.680 OA
ATOM      8  HG  SER A   5      26.956   3.360  -8.337  0.00  0.00     0.400 HD
ENDBRANCH   6   7
ENDBRANCH   5   6
BRANCH   5   9
ATOM      9  C   SER A   5      28.515   2.667 -10.848  0.00  0.00     0.569 C 
ATOM     10  O   SER A   5      27.560   3.081 -11.508  0.00  0.00    -0.570 OA
ATOM     11  N   TRP A   6      29.119   1.464 -11.110  0.00  0.00    -0.730 N 
ATOM     12  HN  TRP A   6      29.922   1.144 -10.575  0.00  0.00     0.370 HD
BRANCH  11  13
ATOM     13  CA  TRP A   6      28.618   0.550 -12.138  0.00  0.00     0.361 C 
BRANCH  13  14
ATOM     14  CB  TRP A   6      29.528   0.548 -13.378  0.00  0.00     0.181 C 
BRANCH  14  15
ATOM     15  CG  TRP A   6      29.103   1.525 -14.429  0.00  0.00    -0.181 A 
ATOM     16  CD1 TRP A   6      28.257   1.270 -15.490  0.00  0.00    -0.152 A 
ATOM     17  NE1 TRP A   6      28.178   2.401 -16.259  0.00  0.00     0.033 N 
ATOM     18  CE2 TRP A   6      28.948   3.402 -15.713  0.00  0.00    -0.152 A 
ATOM     19  HE1 TRP A   6      27.650   2.489 -17.116  0.00  0.00     0.270 HD
ATOM     20  CD2 TRP A   6      29.532   2.887 -14.556  0.00  0.00     0.000 A 
ATOM     21  CZ2 TRP A   6      29.177   4.708 -16.162  0.00  0.00     0.000 A 
ATOM     22  CE3 TRP A   6      30.388   3.722 -13.808  0.00  0.00     0.000 A 
ATOM     23  CZ3 TRP A   6      30.626   5.032 -14.241  0.00  0.00     0.000 A 
ATOM     24  CH2 TRP A   6      30.027   5.515 -15.401  0.00  0.00     0.000 A 
ENDBRANCH  14  15
ENDBRANCH  13  14
BRANCH  13  25
ATOM     25  C   TRP A   6      28.565  -0.848 -11.493  0.00  0.00     0.569 C 
ATOM     26  O   TRP A   6      27.620  -1.205 -10.788  0.00  0.00    -0.570 OA
ATOM     27  N   SER A   7      29.644  -1.657 -11.757  0.00  0.00    -0.730 N 
ATOM     28  HN  SER A   7      30.489  -1.229 -12.136  0.00  0.00     0.370 HD
BRANCH  27  29
ATOM     29  CA  SER A   7      29.881  -2.894 -11.007  0.00  0.00     0.361 C 
BRANCH  29  30
ATOM     30  CB  SER A   7      30.348  -4.035 -11.918  0.00  0.00     0.280 C 
BRANCH  30  31
ATOM     31  OG  SER A   7      31.375  -3.608 -12.813  0.00  0.00    -0.680 OA
ATOM     32  HG  SER A   7      31.831  -2.867 -12.371  0.00  0.00     0.400 HD
ENDBRANCH  30  31
ENDBRANCH  29  30
BRANCH  29  33
ATOM     33  C   SER A   7      30.911  -2.584  -9.905  0.00  0.00     0.569 C 
ATOM     34  O   SER A   7      30.816  -3.019  -8.757  0.00  0.00    -0.570 OA
ATOM     35  N   NHH A   8      31.986  -1.821 -10.260  0.00  0.00    -0.800 N 
ATOM     36  HN1 NHH A   8      32.049  -1.318 -11.133  0.00  0.00     0.370 HD
ATOM     37  HN2 NHH A   8      32.633  -1.574  -9.521  0.00  0.00     0.370 HD
ENDBRANCH  29  33
ENDBRANCH  27  29
ENDBRANCH  13  25
ENDBRANCH  11  13
ENDBRANCH   5   9
ENDBRANCH   3   5
BRANCH   1  38
ATOM     38  CA  HIS A   4      32.788   4.578 -10.293  0.00  0.00     0.361 C 
BRANCH  38  39
ATOM     39  N   HIS A   4      33.131   3.566 -11.293  0.00  0.00    -0.730 N 
ATOM     40  HN  HIS A   4      32.368   3.240 -11.885  0.00  0.00     0.370 HD
ATOM     41  C   ALA A   3      34.376   2.997 -11.379  0.00  0.00     0.569 C 
ATOM     42  O   ALA A   3      35.320   3.341 -10.663  0.00  0.00    -0.570 OA
BRANCH  41  43
ATOM     43  CA  ALA A   3      34.527   1.897 -12.449  0.00  0.00     0.361 C 
ATOM     44  CB  ALA A   3      33.252   1.070 -12.567  0.00  0.00     0.000 C 
BRANCH  43  45
ATOM     45  N   ALA A   3      35.660   1.059 -12.062  0.00  0.00    -0.730 N 
ATOM     46  HN  ALA A   3      35.686   0.770 -11.087  0.00  0.00     0.370 HD
ATOM     47  C   ALA A   2      36.696   0.773 -12.910  0.00  0.00     0.569 C 
ATOM     48  O   ALA A   2      36.734   1.150 -14.083  0.00  0.00    -0.570 OA
BRANCH  47  49
ATOM     49  CA  ALA A   2      37.831  -0.080 -12.313  0.00  0.00     0.361 C 
ATOM     50  CB  ALA A   2      37.283  -1.254 -11.512  0.00  0.00     0.000 C 
BRANCH  49  51
ATOM     51  N   ALA A   2      38.622   0.814 -11.462  0.00  0.00    -0.730 N 
ATOM     52  HN  ALA A   2      38.163   1.074 -10.588  0.00  0.00     0.370 HD
ATOM     53  C   PRO A   1      39.769   1.417 -11.885  0.00  0.00     0.569 C 
ATOM     54  O   PRO A   1      40.293   1.223 -12.983  0.00  0.00    -0.570 OA
BRANCH  53  55
ATOM     55  CA  PRO A   1      40.451   2.382 -10.902  0.00  0.00     0.564 C 
ATOM     56  CB  PRO A   1      41.738   1.829 -10.304  0.00  0.00     0.000 C 
ATOM     57  CG  PRO A   1      41.288   1.143  -9.024  0.00  0.00     0.000 C 
ATOM     58  CD  PRO A   1      40.237   2.083  -8.476  0.00  0.00     0.503 C 
ATOM     59  N   PRO A   1      39.537   2.579  -9.694  0.00  0.00    -0.906 N 
ATOM     60  H1  PRO A   1      39.207   3.547  -9.607  0.00  0.00     0.450 HD
ATOM     61  H2  PRO A   1      38.695   1.998  -9.883  0.00  0.00     0.450 HD
ENDBRANCH  53  55
ENDBRANCH  49  51
ENDBRANCH  47  49
ENDBRANCH  43  45
ENDBRANCH  41  43
ENDBRANCH  38  39
BRANCH  38  62
ATOM     62  CB  HIS A   4      32.519   5.957 -10.927  0.00  0.00     0.180 C 
BRANCH  62  63
ATOM     63  CG  HIS A   4      32.519   7.043  -9.905  0.00  0.00    -0.332 A 
ATOM     64  ND1 HIS A   4      31.457   7.901  -9.741  0.00  0.00     0.033 N 
ATOM     65  CE1 HIS A   4      31.785   8.776  -8.748  0.00  0.00     0.187 A 
ATOM     66  HD1 HIS A   4      30.604   7.904 -10.295  0.00  0.00     0.270 HD
ATOM     67  NE2 HIS A   4      32.981   8.527  -8.263  0.00  0.00    -0.565 NA
ATOM     68  CD2 HIS A   4      33.446   7.448  -8.970  0.00  0.00     0.227 A 
ENDBRANCH  62  63
ENDBRANCH  38  62
ENDBRANCH   1  38
TORSDOF 21
ENDMDL
MODEL 4
REMARK VINA RESULT:     -10.2      1.848      3.224
REMARK  21 active torsions:
REMARK  status: ('A' for Active; 'I' for Inactive)
REMARK    1  A    between atoms: CA_2  and  C_3 
REMARK       I    between atoms: C_3  and  N_10 
REMARK    2  A    between atoms: CA_11  and  N_10 
REMARK    3  A    between atoms: CA_11  and  C_12 
REMARK       I    between atoms: C_12  and  N_16 
REMARK    4  A    between atoms: CA_17  and  N_16 
REMARK    5  A    between atoms: CA_17  and  C_18 
REMARK       I    between atoms: C_18  and  N_22 
REMARK    6  A    between atoms: CA_23  and  N_22 
REMARK    7  A    between atoms: CA_23  and  CB_26 
REMARK    8  A    between atoms: CA_23  and  C_24 
REMARK       I    between atoms: C_24  and  N_34 
REMARK    9  A    between atoms: CB_26  and  CG_27 
REMARK   10  A    between atoms: CA_35  and  N_34 
REMARK   11  A    between atoms: CA_35  and  CB_38 
REMARK   12  A    between atoms: CA_35  and  C_36 
REMARK       I    between atoms: C_36  and  N_42 
REMARK   13  A    between atoms: CB_38  and  OG_39 
REMARK   14  A    between atoms: CA_43  and  N_42 
REMARK   15  A    between atoms: CA_43  and  CB_46 
REMARK   16  A    between atoms: CA_43  and  C_44 
REMARK       I    between atoms: C_44  and  N_58 
REMARK   17  A    between atoms: CB_46  and  CG_47 
REMARK   18  A    between atoms: CA_59  and  N_58 
REMARK   19  A    between atoms: CA_59  and  CB_62 
REMARK   20  A    between atoms: CA_59  and  C_60 
REMARK       I    between atoms: C_60  and  N_66 
REMARK   21  A    between atoms: CB_62  and  OG_63 
ROOT
ATOM      1  C   HIS A   4      33.302   3.817 -12.760  0.00  0.00     0.569 C 
ATOM      2  O   HIS A   4      33.772   4.114 -13.857  0.00  0.00    -0.570 OA
ATOM      3  N   SER A   5      34.000   3.092 -11.828  0.00  0.00    -0.730 N 
ATOM      4  HN  SER A   5      33.536   2.749 -10.987  0.00  0.00     0.370 HD
ENDROOT
BRANCH   3   5
ATOM      5  CA  SER A   5      35.297   2.475 -12.132  0.00  0.00     0.361 C 
BRANCH   5   6
ATOM      6  CB  SER A   5      36.441   3.184 -11.400  0.00  0.00     0.280 C 
BRANCH   6   7
ATOM      7  OG  SER A   5      37.708   2.623 -11.741  0.00  0.00    -0.680 OA
ATOM      8  HG  SER A   5      38.271   2.701 -10.949  0.00  0.00     0.400 HD
ENDBRANCH   6   7
ENDBRANCH   5   6
BRANCH   5   9
ATOM      9  C   SER A   5      35.192   0.986 -11.755  0.00  0.00     0.569 C 
ATOM     10  O   SER A   5      34.244   0.553 -11.096  0.00  0.00    -0.570 OA
ATOM     11  N   TRP A   6      36.179   0.169 -12.242  0.00  0.00    -0.730 N 
ATOM     12  HN  TRP A   6      36.943   0.533 -12.804  0.00  0.00     0.370 HD
BRANCH  11  13
ATOM     13  CA  TRP A   6      36.221  -1.264 -11.942  0.00  0.00     0.361 C 
BRANCH  13  14
ATOM     14  CB  TRP A   6      35.624  -2.094 -13.091  0.00  0.00     0.181 C 
BRANCH  14  15
ATOM     15  CG  TRP A   6      34.768  -3.228 -12.624  0.00  0.00    -0.181 A 
ATOM     16  CD1 TRP A   6      35.203  -4.489 -12.265  0.00  0.00    -0.152 A 
ATOM     17  NE1 TRP A   6      34.106  -5.253 -11.967  0.00  0.00     0.033 N 
ATOM     18  CE2 TRP A   6      32.956  -4.512 -12.109  0.00  0.00    -0.152 A 
ATOM     19  HE1 TRP A   6      34.129  -6.228 -11.700  0.00  0.00     0.270 HD
ATOM     20  CD2 TRP A   6      33.339  -3.232 -12.508  0.00  0.00     0.000 A 
ATOM     21  CZ2 TRP A   6      31.618  -4.881 -11.925  0.00  0.00     0.000 A 
ATOM     22  CE3 TRP A   6      32.332  -2.271 -12.736  0.00  0.00     0.000 A 
ATOM     23  CZ3 TRP A   6      30.989  -2.622 -12.555  0.00  0.00     0.000 A 
ATOM     24  CH2 TRP A   6      30.641  -3.910 -12.155  0.00  0.00     0.000 A 
ENDBRANCH  14  15
ENDBRANCH  13  14
BRANCH  13  25
ATOM     25  C   TRP A   6      37.702  -1.621 -11.716  0.00  0.00     0.569 C 
ATOM     26  O   TRP A   6      38.064  -2.335 -10.780  0.00  0.00    -0.570 OA
ATOM     27  N   SER A   7      38.580  -1.084 -12.626  0.00  0.00    -0.730 N 
ATOM     28  HN  SER A   7      38.255  -0.320 -13.220  0.00  0.00     0.370 HD
BRANCH  27  29
ATOM     29  CA  SER A   7      40.028  -1.095 -12.398  0.00  0.00     0.361 C 
BRANCH  29  30
ATOM     30  CB  SER A   7      40.751  -2.046 -13.358  0.00  0.00     0.280 C 
BRANCH  30  31
ATOM     31  OG  SER A   7      41.829  -1.394 -14.033  0.00  0.00    -0.680 OA
ATOM     32  HG  SER A   7      41.798  -1.704 -14.958  0.00  0.00     0.400 HD
ENDBRANCH  30  31
ENDBRANCH  29  30
BRANCH  29  33
ATOM     33  C   SER A   7      40.535   0.353 -12.536  0.00  0.00     0.569 C 
ATOM     34  O   SER A   7      39.981   1.191 -13.247  0.00  0.00    -0.570 OA
ATOM     35  N   NHH A   8      41.626   0.700 -11.794  0.00  0.00    -0.800 N 
ATOM     36  HN1 NHH A   8      42.207   0.031 -11.310  0.00  0.00     0.370 HD
ATOM     37  HN2 NHH A   8      41.989   1.635 -11.926  0.00  0.00     0.370 HD
ENDBRANCH  29  33
ENDBRANCH  27  29
ENDBRANCH  13  25
ENDBRANCH  11  13
ENDBRANCH   5   9
ENDBRANCH   3   5
BRANCH   1  38
ATOM     38  CA  HIS A   4      31.889   4.247 -12.327  0.00  0.00     0.361 C 
BRANCH  38  39
ATOM     39  N   HIS A   4      30.953   3.830 -13.372  0.00  0.00    -0.730 N 
ATOM     40  HN  HIS A   4      30.894   2.829 -13.552  0.00  0.00     0.370 HD
ATOM     41  C   ALA A   3      30.260   4.724 -14.150  0.00  0.00     0.569 C 
ATOM     42  O   ALA A   3      30.325   5.945 -13.985  0.00  0.00    -0.570 OA
BRANCH  41  43
ATOM     43  CA  ALA A   3      29.376   4.097 -15.247  0.00  0.00     0.361 C 
ATOM     44  CB  ALA A   3      29.103   5.096 -16.366  0.00  0.00     0.000 C 
BRANCH  43  45
ATOM     45  N   ALA A   3      28.132   3.666 -14.615  0.00  0.00    -0.730 N 
ATOM     46  HN  ALA A   3      27.555   4.404 -14.220  0.00  0.00     0.370 HD
ATOM     47  C   ALA A   2      27.802   2.348 -14.447  0.00  0.00     0.569 C 
ATOM     48  O   ALA A   2      28.498   1.418 -14.860  0.00  0.00    -0.570 OA
BRANCH  47  49
ATOM     49  CA  ALA A   2      26.476   2.080 -13.710  0.00  0.00     0.361 C 
ATOM     50  CB  ALA A   2      25.818   0.796 -14.199  0.00  0.00     0.000 C 
BRANCH  49  51
ATOM     51  N   ALA A   2      25.616   3.240 -13.962  0.00  0.00    -0.730 N 
ATOM     52  HN  ALA A   2      25.651   3.588 -14.920  0.00  0.00     0.370 HD
ATOM     53  C   PRO A   1      24.990   3.928 -12.965  0.00  0.00     0.569 C 
ATOM     54  O   PRO A   1      25.022   3.611 -11.775  0.00  0.00    -0.570 OA
BRANCH  53  55
ATOM     55  CA  PRO A   1      24.177   5.165 -13.378  0.00  0.00     0.564 C 
ATOM     56  CB  PRO A   1      24.873   6.027 -14.423  0.00  0.00     0.000 C 
ATOM     57  CG  PRO A   1      25.651   7.046 -13.605  0.00  0.00     0.000 C 
ATOM     58  CD  PRO A   1      24.700   7.387 -12.478  0.00  0.00     0.503 C 
ATOM     59  N   PRO A   1      24.039   6.087 -12.170  0.00  0.00    -0.906 N 
ATOM     60  H1  PRO A   1      23.064   6.191 -11.865  0.00  0.00     0.450 HD
ATOM     61  H2  PRO A   1      24.539   5.608 -11.393  0.00  0.00     0.450 HD
ENDBRANCH  53  55
ENDBRANCH  49  51
ENDBRANCH  47  49
ENDBRANCH  43  45
ENDBRANCH  41  43
ENDBRANCH  38  39
BRANCH  38  62
ATOM     62  CB  HIS A   4      31.536   3.645 -10.953  0.00  0.00     0.180 C 
BRANCH  62  63
ATOM     63  CG  HIS A   4      30.618   2.477 -11.083  0.00  0.00    -0.332 A 
ATOM     64  ND1 HIS A   4      29.268   2.569 -10.837  0.00  0.00     0.033 N 
ATOM     65  CE1 HIS A   4      28.730   1.331 -11.028  0.00  0.00     0.187 A 
ATOM     66  HD1 HIS A   4      28.776   3.404 -10.525  0.00  0.00     0.270 HD
ATOM     67  NE2 HIS A   4      29.644   0.459 -11.387  0.00  0.00    -0.565 NA
ATOM     68  CD2 HIS A   4      30.822   1.160 -11.431  0.00  0.00     0.227 A 
ENDBRANCH  62  63
ENDBRANCH  38  62
ENDBRANCH   1  38
TORSDOF 21
ENDMDL
MODEL 5
REMARK VINA RESULT:     -10.1      1.659      3.851
REMARK  21 active torsions:
REMARK  status: ('A' for Active; 'I' for Inactive)
REMARK    1  A    between atoms: CA_2  and  C_3 
REMARK       I    between atoms: C_3  and  N_10 
REMARK    2  A    between atoms: CA_11  and  N_10 
REMARK    3  A    between atoms: CA_11  and  C_12 
REMARK       I    between atoms: C_12  and  N_16 
REMARK    4  A    between atoms: CA_17  and  N_16 
REMARK    5  A    between atoms: CA_17  and  C_18 
REMARK       I    between atoms: C_18  and  N_22 
REMARK    6  A    between atoms: CA_23  and  N_22 
REMARK    7  A    between atoms: CA_23  and  CB_26 
REMARK    8  A    between atoms: CA_23  and  C_24 
REMARK       I    between atoms: C_24  and  N_34 
REMARK    9  A    between atoms: CB_26  and  CG_27 
REMARK   10  A    between atoms: CA_35  and  N_34 
REMARK   11  A    between atoms: CA_35  and  CB_38 
REMARK   12  A    between atoms: CA_35  and  C_36 
REMARK       I    between atoms: C_36  and  N_42 
REMARK   13  A    between atoms: CB_38  and  OG_39 
REMARK   14  A    between atoms: CA_43  and  N_42 
REMARK   15  A    between atoms: CA_43  and  CB_46 
REMARK   16  A    between atoms: CA_43  and  C_44 
REMARK       I    between atoms: C_44  and  N_58 
REMARK   17  A    between atoms: CB_46  and  CG_47 
REMARK   18  A    between atoms: CA_59  and  N_58 
REMARK   19  A    between atoms: CA_59  and  CB_62 
REMARK   20  A    between atoms: CA_59  and  C_60 
REMARK       I    between atoms: C_60  and  N_66 
REMARK   21  A    between atoms: CB_62  and  OG_63 
ROOT
ATOM      1  C   HIS A   4      32.909   1.573 -11.983  0.00  0.00     0.569 C 
ATOM      2  O   HIS A   4      33.196   0.861 -12.944  0.00  0.00    -0.570 OA
ATOM      3  N   SER A   5      33.847   2.297 -11.291  0.00  0.00    -0.730 N 
ATOM      4  HN  SER A   5      33.598   2.768 -10.422  0.00  0.00     0.370 HD
ENDROOT
BRANCH   3   5
ATOM      5  CA  SER A   5      35.285   2.148 -11.541  0.00  0.00     0.361 C 
BRANCH   5   6
ATOM      6  CB  SER A   5      36.099   3.199 -10.780  0.00  0.00     0.280 C 
BRANCH   6   7
ATOM      7  OG  SER A   5      37.317   3.510 -11.457  0.00  0.00    -0.680 OA
ATOM      8  HG  SER A   5      37.080   3.709 -12.381  0.00  0.00     0.400 HD
ENDBRANCH   6   7
ENDBRANCH   5   6
BRANCH   5   9
ATOM      9  C   SER A   5      35.669   0.710 -11.148  0.00  0.00     0.569 C 
ATOM     10  O   SER A   5      35.858   0.392  -9.971  0.00  0.00    -0.570 OA
ATOM     11  N   TRP A   6      35.731  -0.200 -12.171  0.00  0.00    -0.730 N 
ATOM     12  HN  TRP A   6      35.549   0.068 -13.135  0.00  0.00     0.370 HD
BRANCH  11  13
ATOM     13  CA  TRP A   6      36.108  -1.597 -11.948  0.00  0.00     0.361 C 
BRANCH  13  14
ATOM     14  CB  TRP A   6      35.592  -2.504 -13.078  0.00  0.00     0.181 C 
BRANCH  14  15
ATOM     15  CG  TRP A   6      34.640  -3.558 -12.607  0.00  0.00    -0.181 A 
ATOM     16  CD1 TRP A   6      34.965  -4.849 -12.236  0.00  0.00    -0.152 A 
ATOM     17  NE1 TRP A   6      33.806  -5.515 -11.939  0.00  0.00     0.033 N 
ATOM     18  CE2 TRP A   6      32.724  -4.680 -12.093  0.00  0.00    -0.152 A 
ATOM     19  HE1 TRP A   6      33.744  -6.486 -11.665  0.00  0.00     0.270 HD
ATOM     20  CD2 TRP A   6      33.216  -3.440 -12.499  0.00  0.00     0.000 A 
ATOM     21  CZ2 TRP A   6      31.358  -4.933 -11.915  0.00  0.00     0.000 A 
ATOM     22  CE3 TRP A   6      32.295  -2.399 -12.740  0.00  0.00     0.000 A 
ATOM     23  CZ3 TRP A   6      30.926  -2.633 -12.564  0.00  0.00     0.000 A 
ATOM     24  CH2 TRP A   6      30.468  -3.883 -12.157  0.00  0.00     0.000 A 
ENDBRANCH  14  15
ENDBRANCH  13  14
BRANCH  13  25
ATOM     25  C   TRP A   6      37.646  -1.630 -11.875  0.00  0.00     0.569 C 
ATOM     26  O   TRP A   6      38.243  -2.107 -10.909  0.00  0.00    -0.570 OA
ATOM     27  N   SER A   7      38.296  -1.085 -12.957  0.00  0.00    -0.730 N 
ATOM     28  HN  SER A   7      37.761  -0.499 -13.598  0.00  0.00     0.370 HD
BRANCH  27  29
ATOM     29  CA  SER A   7      39.731  -0.788 -12.924  0.00  0.00     0.361 C 
BRANCH  29  30
ATOM     30  CB  SER A   7      40.432  -1.207 -14.220  0.00  0.00     0.280 C 
BRANCH  30  31
ATOM     31  OG  SER A   7      41.836  -1.385 -14.026  0.00  0.00    -0.680 OA
ATOM     32  HG  SER A   7      41.932  -2.052 -13.321  0.00  0.00     0.400 HD
ENDBRANCH  30  31
ENDBRANCH  29  30
BRANCH  29  33
ATOM     33  C   SER A   7      39.891   0.719 -12.649  0.00  0.00     0.569 C 
ATOM     34  O   SER A   7      38.933   1.486 -12.544  0.00  0.00    -0.570 OA
ATOM     35  N   NHH A   8      41.162   1.186 -12.479  0.00  0.00    -0.800 N 
ATOM     36  HN1 NHH A   8      41.987   0.646 -12.694  0.00  0.00     0.370 HD
ATOM     37  HN2 NHH A   8      41.268   2.185 -12.352  0.00  0.00     0.370 HD
ENDBRANCH  29  33
ENDBRANCH  27  29
ENDBRANCH  13  25
ENDBRANCH  11  13
ENDBRANCH   5   9
ENDBRANCH   3   5
BRANCH   1  38
ATOM     38  CA  HIS A   4      31.463   1.729 -11.479  0.00  0.00     0.361 C 
BRANCH  38  39
ATOM     39  N   HIS A   4      31.361   3.024 -10.803  0.00  0.00    -0.730 N 
ATOM     40  HN  HIS A   4      31.920   3.781 -11.192  0.00  0.00     0.370 HD
ATOM     41  C   ALA A   3      30.644   3.205  -9.647  0.00  0.00     0.569 C 
ATOM     42  O   ALA A   3      29.977   2.308  -9.126  0.00  0.00    -0.570 OA
BRANCH  41  43
ATOM     43  CA  ALA A   3      30.714   4.622  -9.042  0.00  0.00     0.361 C 
ATOM     44  CB  ALA A   3      29.344   5.075  -8.550  0.00  0.00     0.000 C 
BRANCH  43  45
ATOM     45  N   ALA A   3      31.219   5.518 -10.080  0.00  0.00    -0.730 N 
ATOM     46  HN  ALA A   3      30.515   5.967 -10.661  0.00  0.00     0.370 HD
ATOM     47  C   ALA A   2      32.553   5.664 -10.350  0.00  0.00     0.569 C 
ATOM     48  O   ALA A   2      33.439   5.096  -9.708  0.00  0.00    -0.570 OA
BRANCH  47  49
ATOM     49  CA  ALA A   2      32.899   6.610 -11.515  0.00  0.00     0.361 C 
ATOM     50  CB  ALA A   2      33.382   7.963 -11.008  0.00  0.00     0.000 C 
BRANCH  49  51
ATOM     51  N   ALA A   2      31.679   6.753 -12.314  0.00  0.00    -0.730 N 
ATOM     52  HN  ALA A   2      31.122   7.577 -12.084  0.00  0.00     0.370 HD
ATOM     53  C   PRO A   1      31.214   5.772 -13.138  0.00  0.00     0.569 C 
ATOM     54  O   PRO A   1      31.797   4.707 -13.350  0.00  0.00    -0.570 OA
BRANCH  53  55
ATOM     55  CA  PRO A   1      29.884   6.041 -13.859  0.00  0.00     0.564 C 
ATOM     56  CB  PRO A   1      28.992   4.812 -13.965  0.00  0.00     0.000 C 
ATOM     57  CG  PRO A   1      29.372   4.191 -15.300  0.00  0.00     0.000 C 
ATOM     58  CD  PRO A   1      29.556   5.392 -16.202  0.00  0.00     0.503 C 
ATOM     59  N   PRO A   1      30.178   6.411 -15.311  0.00  0.00    -0.906 N 
ATOM     60  H1  PRO A   1      29.897   7.373 -15.535  0.00  0.00     0.450 HD
ATOM     61  H2  PRO A   1      31.214   6.380 -15.402  0.00  0.00     0.450 HD
ENDBRANCH  53  55
ENDBRANCH  49  51
ENDBRANCH  47  49
ENDBRANCH  43  45
ENDBRANCH  41  43
ENDBRANCH  38  39
BRANCH  38  62
ATOM     62  CB  HIS A   4      30.464   1.601 -12.646  0.00  0.00     0.180 C 
BRANCH  62  63
ATOM     63  CG  HIS A   4      29.175   0.996 -12.204  0.00  0.00    -0.332 A 
ATOM     64  ND1 HIS A   4      29.105   0.072 -11.188  0.00  0.00     0.033 N 
ATOM     65  CE1 HIS A   4      27.797  -0.288 -11.049  0.00  0.00     0.187 A 
ATOM     66  HD1 HIS A   4      29.896  -0.303 -10.669  0.00  0.00     0.270 HD
ATOM     67  NE2 HIS A   4      27.030   0.350 -11.903  0.00  0.00    -0.565 NA
ATOM     68  CD2 HIS A   4      27.873   1.157 -12.622  0.00  0.00     0.227 A 
ENDBRANCH  62  63
ENDBRANCH  38  62
ENDBRANCH   1  38
TORSDOF 21
ENDMDL
MODEL 6
REMARK VINA RESULT:     -10.0      2.357      9.158
REMARK  21 active torsions:
REMARK  status: ('A' for Active; 'I' for Inactive)
REMARK    1  A    between atoms: CA_2  and  C_3 
REMARK       I    between atoms: C_3  and  N_10 
REMARK    2  A    between atoms: CA_11  and  N_10 
REMARK    3  A    between atoms: CA_11  and  C_12 
REMARK       I    between atoms: C_12  and  N_16 
REMARK    4  A    between atoms: CA_17  and  N_16 
REMARK    5  A    between atoms: CA_17  and  C_18 
REMARK       I    between atoms: C_18  and  N_22 
REMARK    6  A    between atoms: CA_23  and  N_22 
REMARK    7  A    between atoms: CA_23  and  CB_26 
REMARK    8  A    between atoms: CA_23  and  C_24 
REMARK       I    between atoms: C_24  and  N_34 
REMARK    9  A    between atoms: CB_26  and  CG_27 
REMARK   10  A    between atoms: CA_35  and  N_34 
REMARK   11  A    between atoms: CA_35  and  CB_38 
REMARK   12  A    between atoms: CA_35  and  C_36 
REMARK       I    between atoms: C_36  and  N_42 
REMARK   13  A    between atoms: CB_38  and  OG_39 
REMARK   14  A    between atoms: CA_43  and  N_42 
REMARK   15  A    between atoms: CA_43  and  CB_46 
REMARK   16  A    between atoms: CA_43  and  C_44 
REMARK       I    between atoms: C_44  and  N_58 
REMARK   17  A    between atoms: CB_46  and  CG_47 
REMARK   18  A    between atoms: CA_59  and  N_58 
REMARK   19  A    between atoms: CA_59  and  CB_62 
REMARK   20  A    between atoms: CA_59  and  C_60 
REMARK       I    between atoms: C_60  and  N_66 
REMARK   21  A    between atoms: CB_62  and  OG_63 
ROOT
ATOM      1  C   HIS A   4      32.368   2.305 -11.902  0.00  0.00     0.569 C 
ATOM      2  O   HIS A   4      31.944   1.328 -11.286  0.00  0.00    -0.570 OA
ATOM      3  N   SER A   5      31.548   3.303 -12.362  0.00  0.00    -0.730 N 
ATOM      4  HN  SER A   5      31.912   4.027 -12.982  0.00  0.00     0.370 HD
ENDROOT
BRANCH   3   5
ATOM      5  CA  SER A   5      30.085   3.200 -12.300  0.00  0.00     0.361 C 
BRANCH   5   6
ATOM      6  CB  SER A   5      29.429   4.581 -12.195  0.00  0.00     0.280 C 
BRANCH   6   7
ATOM      7  OG  SER A   5      28.563   4.835 -13.301  0.00  0.00    -0.680 OA
ATOM      8  HG  SER A   5      28.841   5.687 -13.684  0.00  0.00     0.400 HD
ENDBRANCH   6   7
ENDBRANCH   5   6
BRANCH   5   9
ATOM      9  C   SER A   5      29.630   2.427 -13.551  0.00  0.00     0.569 C 
ATOM     10  O   SER A   5      29.830   2.864 -14.687  0.00  0.00    -0.570 OA
ATOM     11  N   TRP A   6      29.046   1.207 -13.328  0.00  0.00    -0.730 N 
ATOM     12  HN  TRP A   6      28.909   0.846 -12.388  0.00  0.00     0.370 HD
BRANCH  11  13
ATOM     13  CA  TRP A   6      28.543   0.374 -14.422  0.00  0.00     0.361 C 
BRANCH  13  14
ATOM     14  CB  TRP A   6      28.614  -1.120 -14.066  0.00  0.00     0.181 C 
BRANCH  14  15
ATOM     15  CG  TRP A   6      29.097  -1.379 -12.674  0.00  0.00    -0.181 A 
ATOM     16  CD1 TRP A   6      28.672  -0.736 -11.527  0.00  0.00    -0.152 A 
ATOM     17  NE1 TRP A   6      29.405  -1.210 -10.472  0.00  0.00     0.033 N 
ATOM     18  CE2 TRP A   6      30.297  -2.165 -10.903  0.00  0.00    -0.152 A 
ATOM     19  HE1 TRP A   6      29.324  -0.893  -9.516  0.00  0.00     0.270 HD
ATOM     20  CD2 TRP A   6      30.119  -2.303 -12.278  0.00  0.00     0.000 A 
ATOM     21  CZ2 TRP A   6      31.246  -2.901 -10.182  0.00  0.00     0.000 A 
ATOM     22  CE3 TRP A   6      30.931  -3.225 -12.971  0.00  0.00     0.000 A 
ATOM     23  CZ3 TRP A   6      31.883  -3.971 -12.266  0.00  0.00     0.000 A 
ATOM     24  CH2 TRP A   6      32.036  -3.809 -10.892  0.00  0.00     0.000 A 
ENDBRANCH  14  15
ENDBRANCH  13  14
BRANCH  13  25
ATOM     25  C   TRP A   6      27.087   0.811 -14.672  0.00  0.00     0.569 C 
ATOM     26  O   TRP A   6      26.611   0.874 -15.806  0.00  0.00    -0.570 OA
ATOM     27  N   SER A   7      26.369   1.129 -13.544  0.00  0.00    -0.730 N 
ATOM     28  HN  SER A   7      26.878   1.290 -12.674  0.00  0.00     0.370 HD
BRANCH  27  29
ATOM     29  CA  SER A   7      25.079   1.820 -13.622  0.00  0.00     0.361 C 
BRANCH  29  30
ATOM     30  CB  SER A   7      24.033   1.186 -12.699  0.00  0.00     0.280 C 
BRANCH  30  31
ATOM     31  OG  SER A   7      22.841   1.970 -12.635  0.00  0.00    -0.680 OA
ATOM     32  HG  SER A   7      22.678   2.142 -11.689  0.00  0.00     0.400 HD
ENDBRANCH  30  31
ENDBRANCH  29  30
BRANCH  29  33
ATOM     33  C   SER A   7      25.320   3.302 -13.280  0.00  0.00     0.569 C 
ATOM     34  O   SER A   7      26.049   3.667 -12.357  0.00  0.00    -0.570 OA
ATOM     35  N   NHH A   8      24.716   4.228 -14.080  0.00  0.00    -0.800 N 
ATOM     36  HN1 NHH A   8      23.999   4.001 -14.754  0.00  0.00     0.370 HD
ATOM     37  HN2 NHH A   8      24.832   5.200 -13.821  0.00  0.00     0.370 HD
ENDBRANCH  29  33
ENDBRANCH  27  29
ENDBRANCH  13  25
ENDBRANCH  11  13
ENDBRANCH   5   9
ENDBRANCH   3   5
BRANCH   1  38
ATOM     38  CA  HIS A   4      33.866   2.503 -12.197  0.00  0.00     0.361 C 
BRANCH  38  39
ATOM     39  N   HIS A   4      34.384   1.251 -12.749  0.00  0.00    -0.730 N 
ATOM     40  HN  HIS A   4      34.044   0.990 -13.673  0.00  0.00     0.370 HD
ATOM     41  C   ALA A   3      35.200   0.406 -12.039  0.00  0.00     0.569 C 
ATOM     42  O   ALA A   3      35.611   0.669 -10.906  0.00  0.00    -0.570 OA
BRANCH  41  43
ATOM     43  CA  ALA A   3      35.586  -0.901 -12.761  0.00  0.00     0.361 C 
ATOM     44  CB  ALA A   3      35.221  -2.119 -11.919  0.00  0.00     0.000 C 
BRANCH  43  45
ATOM     45  N   ALA A   3      37.023  -0.854 -13.017  0.00  0.00    -0.730 N 
ATOM     46  HN  ALA A   3      37.597  -1.469 -12.446  0.00  0.00     0.370 HD
ATOM     47  C   ALA A   2      37.595   0.043 -13.880  0.00  0.00     0.569 C 
ATOM     48  O   ALA A   2      36.944   0.846 -14.550  0.00  0.00    -0.570 OA
BRANCH  47  49
ATOM     49  CA  ALA A   2      39.131  -0.016 -13.983  0.00  0.00     0.361 C 
ATOM     50  CB  ALA A   2      39.589  -1.243 -14.760  0.00  0.00     0.000 C 
BRANCH  49  51
ATOM     51  N   ALA A   2      39.642  -0.042 -12.610  0.00  0.00    -0.730 N 
ATOM     52  HN  ALA A   2      39.480  -0.922 -12.119  0.00  0.00     0.370 HD
ATOM     53  C   PRO A   1      40.098   1.071 -11.968  0.00  0.00     0.569 C 
ATOM     54  O   PRO A   1      40.196   2.183 -12.488  0.00  0.00    -0.570 OA
BRANCH  53  55
ATOM     55  CA  PRO A   1      40.538   0.899 -10.505  0.00  0.00     0.564 C 
ATOM     56  CB  PRO A   1      39.603   0.015  -9.691  0.00  0.00     0.000 C 
ATOM     57  CG  PRO A   1      38.609   0.990  -9.080  0.00  0.00     0.000 C 
ATOM     58  CD  PRO A   1      39.472   2.174  -8.701  0.00  0.00     0.503 C 
ATOM     59  N   PRO A   1      40.465   2.255  -9.808  0.00  0.00    -0.906 N 
ATOM     60  H1  PRO A   1      41.387   2.589  -9.502  0.00  0.00     0.450 HD
ATOM     61  H2  PRO A   1      40.137   2.925 -10.533  0.00  0.00     0.450 HD
ENDBRANCH  53  55
ENDBRANCH  49  51
ENDBRANCH  47  49
ENDBRANCH  43  45
ENDBRANCH  41  43
ENDBRANCH  38  39
BRANCH  38  62
ATOM     62  CB  HIS A   4      34.077   3.694 -13.153  0.00  0.00     0.180 C 
BRANCH  62  63
ATOM     63  CG  HIS A   4      34.557   4.904 -12.428  0.00  0.00    -0.332 A 
ATOM     64  ND1 HIS A   4      33.828   6.070 -12.375  0.00  0.00     0.033 N 
ATOM     65  CE1 HIS A   4      34.552   6.975 -11.657  0.00  0.00     0.187 A 
ATOM     66  HD1 HIS A   4      32.933   6.232 -12.830  0.00  0.00     0.270 HD
ATOM     67  NE2 HIS A   4      35.689   6.463 -11.243  0.00  0.00    -0.565 NA
ATOM     68  CD2 HIS A   4      35.701   5.174 -11.710  0.00  0.00     0.227 A 
ENDBRANCH  62  63
ENDBRANCH  38  62
ENDBRANCH   1  38
TORSDOF 21
ENDMDL
MODEL 7
REMARK VINA RESULT:     -10.0      3.082      7.327
REMARK  21 active torsions:
REMARK  status: ('A' for Active; 'I' for Inactive)
REMARK    1  A    between atoms: CA_2  and  C_3 
REMARK       I    between atoms: C_3  and  N_10 
REMARK    2  A    between atoms: CA_11  and  N_10 
REMARK    3  A    between atoms: CA_11  and  C_12 
REMARK       I    between atoms: C_12  and  N_16 
REMARK    4  A    between atoms: CA_17  and  N_16 
REMARK    5  A    between atoms: CA_17  and  C_18 
REMARK       I    between atoms: C_18  and  N_22 
REMARK    6  A    between atoms: CA_23  and  N_22 
REMARK    7  A    between atoms: CA_23  and  CB_26 
REMARK    8  A    between atoms: CA_23  and  C_24 
REMARK       I    between atoms: C_24  and  N_34 
REMARK    9  A    between atoms: CB_26  and  CG_27 
REMARK   10  A    between atoms: CA_35  and  N_34 
REMARK   11  A    between atoms: CA_35  and  CB_38 
REMARK   12  A    between atoms: CA_35  and  C_36 
REMARK       I    between atoms: C_36  and  N_42 
REMARK   13  A    between atoms: CB_38  and  OG_39 
REMARK   14  A    between atoms: CA_43  and  N_42 
REMARK   15  A    between atoms: CA_43  and  CB_46 
REMARK   16  A    between atoms: CA_43  and  C_44 
REMARK       I    between atoms: C_44  and  N_58 
REMARK   17  A    between atoms: CB_46  and  CG_47 
REMARK   18  A    between atoms: CA_59  and  N_58 
REMARK   19  A    between atoms: CA_59  and  CB_62 
REMARK   20  A    between atoms: CA_59  and  C_60 
REMARK       I    between atoms: C_60  and  N_66 
REMARK   21  A    between atoms: CB_62  and  OG_63 
ROOT
ATOM      1  C   HIS A   4      33.156   2.619 -12.256  0.00  0.00     0.569 C 
ATOM      2  O   HIS A   4      33.117   3.414 -13.193  0.00  0.00    -0.570 OA
ATOM      3  N   SER A   5      34.335   2.172 -11.713  0.00  0.00    -0.730 N 
ATOM      4  HN  SER A   5      34.334   1.415 -11.030  0.00  0.00     0.370 HD
ENDROOT
BRANCH   3   5
ATOM      5  CA  SER A   5      35.636   2.481 -12.315  0.00  0.00     0.361 C 
BRANCH   5   6
ATOM      6  CB  SER A   5      36.527   3.273 -11.353  0.00  0.00     0.280 C 
BRANCH   6   7
ATOM      7  OG  SER A   5      37.909   2.977 -11.554  0.00  0.00    -0.680 OA
ATOM      8  HG  SER A   5      37.980   2.553 -12.429  0.00  0.00     0.400 HD
ENDBRANCH   6   7
ENDBRANCH   5   6
BRANCH   5   9
ATOM      9  C   SER A   5      36.271   1.143 -12.736  0.00  0.00     0.569 C 
ATOM     10  O   SER A   5      37.219   1.099 -13.524  0.00  0.00    -0.570 OA
ATOM     11  N   TRP A   6      35.759   0.018 -12.142  0.00  0.00    -0.730 N 
ATOM     12  HN  TRP A   6      34.994   0.069 -11.476  0.00  0.00     0.370 HD
BRANCH  11  13
ATOM     13  CA  TRP A   6      36.249  -1.323 -12.466  0.00  0.00     0.361 C 
BRANCH  13  14
ATOM     14  CB  TRP A   6      37.016  -1.940 -11.285  0.00  0.00     0.181 C 
BRANCH  14  15
ATOM     15  CG  TRP A   6      38.264  -1.193 -10.931  0.00  0.00    -0.181 A 
ATOM     16  CD1 TRP A   6      39.521  -1.400 -11.465  0.00  0.00    -0.152 A 
ATOM     17  NE1 TRP A   6      40.401  -0.565 -10.828  0.00  0.00     0.033 N 
ATOM     18  CE2 TRP A   6      39.741   0.198  -9.893  0.00  0.00    -0.152 A 
ATOM     19  HE1 TRP A   6      41.396  -0.524 -11.001  0.00  0.00     0.270 HD
ATOM     20  CD2 TRP A   6      38.395  -0.164  -9.942  0.00  0.00     0.000 A 
ATOM     21  CZ2 TRP A   6      40.235   1.164  -9.009  0.00  0.00     0.000 A 
ATOM     22  CE3 TRP A   6      37.497   0.473  -9.061  0.00  0.00     0.000 A 
ATOM     23  CZ3 TRP A   6      37.973   1.444  -8.172  0.00  0.00     0.000 A 
ATOM     24  CH2 TRP A   6      39.323   1.782  -8.149  0.00  0.00     0.000 A 
ENDBRANCH  14  15
ENDBRANCH  13  14
BRANCH  13  25
ATOM     25  C   TRP A   6      35.010  -2.168 -12.819  0.00  0.00     0.569 C 
ATOM     26  O   TRP A   6      34.593  -2.262 -13.974  0.00  0.00    -0.570 OA
ATOM     27  N   SER A   7      34.409  -2.799 -11.756  0.00  0.00    -0.730 N 
ATOM     28  HN  SER A   7      34.649  -2.493 -10.813  0.00  0.00     0.370 HD
BRANCH  27  29
ATOM     29  CA  SER A   7      33.079  -3.406 -11.872  0.00  0.00     0.361 C 
BRANCH  29  30
ATOM     30  CB  SER A   7      33.148  -4.936 -11.889  0.00  0.00     0.280 C 
BRANCH  30  31
ATOM     31  OG  SER A   7      31.987  -5.510 -12.490  0.00  0.00    -0.680 OA
ATOM     32  HG  SER A   7      31.373  -5.714 -11.759  0.00  0.00     0.400 HD
ENDBRANCH  30  31
ENDBRANCH  29  30
BRANCH  29  33
ATOM     33  C   SER A   7      32.223  -2.884 -10.704  0.00  0.00     0.569 C 
ATOM     34  O   SER A   7      32.435  -1.807 -10.146  0.00  0.00    -0.570 OA
ATOM     35  N   NHH A   8      31.166  -3.656 -10.318  0.00  0.00    -0.800 N 
ATOM     36  HN1 NHH A   8      31.026  -4.606 -10.631  0.00  0.00     0.370 HD
ATOM     37  HN2 NHH A   8      30.637  -3.338  -9.515  0.00  0.00     0.370 HD
ENDBRANCH  29  33
ENDBRANCH  27  29
ENDBRANCH  13  25
ENDBRANCH  11  13
ENDBRANCH   5   9
ENDBRANCH   3   5
BRANCH   1  38
ATOM     38  CA  HIS A   4      31.882   2.064 -11.594  0.00  0.00     0.361 C 
BRANCH  38  39
ATOM     39  N   HIS A   4      31.111   3.199 -11.085  0.00  0.00    -0.730 N 
ATOM     40  HN  HIS A   4      30.261   3.433 -11.596  0.00  0.00     0.370 HD
ATOM     41  C   ALA A   3      31.540   3.984 -10.044  0.00  0.00     0.569 C 
ATOM     42  O   ALA A   3      32.577   3.754  -9.417  0.00  0.00    -0.570 OA
BRANCH  41  43
ATOM     43  CA  ALA A   3      30.628   5.177  -9.696  0.00  0.00     0.361 C 
ATOM     44  CB  ALA A   3      29.269   5.043 -10.375  0.00  0.00     0.000 C 
BRANCH  43  45
ATOM     45  N   ALA A   3      31.311   6.394 -10.130  0.00  0.00    -0.730 N 
ATOM     46  HN  ALA A   3      31.369   6.537 -11.135  0.00  0.00     0.370 HD
ATOM     47  C   ALA A   2      31.947   7.239  -9.261  0.00  0.00     0.569 C 
ATOM     48  O   ALA A   2      31.951   7.075  -8.039  0.00  0.00    -0.570 OA
BRANCH  47  49
ATOM     49  CA  ALA A   2      32.661   8.444  -9.902  0.00  0.00     0.361 C 
ATOM     50  CB  ALA A   2      33.636   8.000 -10.985  0.00  0.00     0.000 C 
BRANCH  49  51
ATOM     51  N   ALA A   2      33.360   9.141  -8.819  0.00  0.00    -0.730 N 
ATOM     52  HN  ALA A   2      34.050   8.570  -8.330  0.00  0.00     0.370 HD
ATOM     53  C   PRO A   1      32.980  10.367  -8.360  0.00  0.00     0.569 C 
ATOM     54  O   PRO A   1      32.069  11.040  -8.847  0.00  0.00    -0.570 OA
BRANCH  53  55
ATOM     55  CA  PRO A   1      33.768  10.940  -7.172  0.00  0.00     0.564 C 
ATOM     56  CB  PRO A   1      34.872  10.017  -6.675  0.00  0.00     0.000 C 
ATOM     57  CG  PRO A   1      34.202   9.190  -5.588  0.00  0.00     0.000 C 
ATOM     58  CD  PRO A   1      33.324  10.196  -4.877  0.00  0.00     0.503 C 
ATOM     59  N   PRO A   1      32.828  11.071  -5.976  0.00  0.00    -0.906 N 
ATOM     60  H1  PRO A   1      32.693  12.047  -5.689  0.00  0.00     0.450 HD
ATOM     61  H2  PRO A   1      31.902  10.733  -6.311  0.00  0.00     0.450 HD
ENDBRANCH  53  55
ENDBRANCH  49  51
ENDBRANCH  47  49
ENDBRANCH  43  45
ENDBRANCH  41  43
ENDBRANCH  38  39
BRANCH  38  62
ATOM     62  CB  HIS A   4      31.076   1.215 -12.596  0.00  0.00     0.180 C 
BRANCH  62  63
ATOM     63  CG  HIS A   4      29.773   0.774 -12.022  0.00  0.00    -0.332 A 
ATOM     64  ND1 HIS A   4      28.571   1.304 -12.428  0.00  0.00     0.033 N 
ATOM     65  CE1 HIS A   4      27.589   0.702 -11.699  0.00  0.00     0.187 A 
ATOM     66  HD1 HIS A   4      28.449   2.043 -13.117  0.00  0.00     0.270 HD
ATOM     67  NE2 HIS A   4      28.083  -0.181 -10.861  0.00  0.00    -0.565 NA
ATOM     68  CD2 HIS A   4      29.440  -0.151 -11.057  0.00  0.00     0.227 A 
ENDBRANCH  62  63
ENDBRANCH  38  62
ENDBRANCH   1  38
TORSDOF 21
ENDMDL
MODEL 8
REMARK VINA RESULT:      -9.9      2.626      5.744
REMARK  21 active torsions:
REMARK  status: ('A' for Active; 'I' for Inactive)
REMARK    1  A    between atoms: CA_2  and  C_3 
REMARK       I    between atoms: C_3  and  N_10 
REMARK    2  A    between atoms: CA_11  and  N_10 
REMARK    3  A    between atoms: CA_11  and  C_12 
REMARK       I    between atoms: C_12  and  N_16 
REMARK    4  A    between atoms: CA_17  and  N_16 
REMARK    5  A    between atoms: CA_17  and  C_18 
REMARK       I    between atoms: C_18  and  N_22 
REMARK    6  A    between atoms: CA_23  and  N_22 
REMARK    7  A    between atoms: CA_23  and  CB_26 
REMARK    8  A    between atoms: CA_23  and  C_24 
REMARK       I    between atoms: C_24  and  N_34 
REMARK    9  A    between atoms: CB_26  and  CG_27 
REMARK   10  A    between atoms: CA_35  and  N_34 
REMARK   11  A    between atoms: CA_35  and  CB_38 
REMARK   12  A    between atoms: CA_35  and  C_36 
REMARK       I    between atoms: C_36  and  N_42 
REMARK   13  A    between atoms: CB_38  and  OG_39 
REMARK   14  A    between atoms: CA_43  and  N_42 
REMARK   15  A    between atoms: CA_43  and  CB_46 
REMARK   16  A    between atoms: CA_43  and  C_44 
REMARK       I    between atoms: C_44  and  N_58 
REMARK   17  A    between atoms: CB_46  and  CG_47 
REMARK   18  A    between atoms: CA_59  and  N_58 
REMARK   19  A    between atoms: CA_59  and  CB_62 
REMARK   20  A    between atoms: CA_59  and  C_60 
REMARK       I    between atoms: C_60  and  N_66 
REMARK   21  A    between atoms: CB_62  and  OG_63 
ROOT
ATOM      1  C   HIS A   4      33.054   3.483 -12.674  0.00  0.00     0.569 C 
ATOM      2  O   HIS A   4      33.527   4.065 -13.649  0.00  0.00    -0.570 OA
ATOM      3  N   SER A   5      33.831   2.802 -11.770  0.00  0.00    -0.730 N 
ATOM      4  HN  SER A   5      33.399   2.221 -11.053  0.00  0.00     0.370 HD
ENDROOT
BRANCH   3   5
ATOM      5  CA  SER A   5      35.265   2.578 -11.989  0.00  0.00     0.361 C 
BRANCH   5   6
ATOM      6  CB  SER A   5      36.113   3.644 -11.288  0.00  0.00     0.280 C 
BRANCH   6   7
ATOM      7  OG  SER A   5      37.505   3.332 -11.354  0.00  0.00    -0.680 OA
ATOM      8  HG  SER A   5      37.905   3.969 -11.974  0.00  0.00     0.400 HD
ENDBRANCH   6   7
ENDBRANCH   5   6
BRANCH   5   9
ATOM      9  C   SER A   5      35.583   1.155 -11.494  0.00  0.00     0.569 C 
ATOM     10  O   SER A   5      35.990   0.947 -10.349  0.00  0.00    -0.570 OA
ATOM     11  N   TRP A   6      35.334   0.138 -12.379  0.00  0.00    -0.730 N 
ATOM     12  HN  TRP A   6      34.975   0.320 -13.313  0.00  0.00     0.370 HD
BRANCH  11  13
ATOM     13  CA  TRP A   6      35.613  -1.262 -12.054  0.00  0.00     0.361 C 
BRANCH  13  14
ATOM     14  CB  TRP A   6      35.105  -2.205 -13.157  0.00  0.00     0.181 C 
BRANCH  14  15
ATOM     15  CG  TRP A   6      34.300  -3.353 -12.635  0.00  0.00    -0.181 A 
ATOM     16  CD1 TRP A   6      34.788  -4.582 -12.235  0.00  0.00    -0.152 A 
ATOM     17  NE1 TRP A   6      33.726  -5.376 -11.892  0.00  0.00     0.033 N 
ATOM     18  CE2 TRP A   6      32.547  -4.685 -12.047  0.00  0.00    -0.152 A 
ATOM     19  HE1 TRP A   6      33.790  -6.337 -11.589  0.00  0.00     0.270 HD
ATOM     20  CD2 TRP A   6      32.874  -3.408 -12.500  0.00  0.00     0.000 A 
ATOM     21  CZ2 TRP A   6      31.226  -5.099 -11.831  0.00  0.00     0.000 A 
ATOM     22  CE3 TRP A   6      31.827  -2.496 -12.750  0.00  0.00     0.000 A 
ATOM     23  CZ3 TRP A   6      30.502  -2.892 -12.537  0.00  0.00     0.000 A 
ATOM     24  CH2 TRP A   6      30.209  -4.175 -12.084  0.00  0.00     0.000 A 
ENDBRANCH  14  15
ENDBRANCH  13  14
BRANCH  13  25
ATOM     25  C   TRP A   6      37.140  -1.378 -11.890  0.00  0.00     0.569 C 
ATOM     26  O   TRP A   6      37.650  -2.034 -10.981  0.00  0.00    -0.570 OA
ATOM     27  N   SER A   7      37.883  -0.695 -12.822  0.00  0.00    -0.730 N 
ATOM     28  HN  SER A   7      37.416   0.013 -13.390  0.00  0.00     0.370 HD
BRANCH  27  29
ATOM     29  CA  SER A   7      39.322  -0.475 -12.649  0.00  0.00     0.361 C 
BRANCH  29  30
ATOM     30  CB  SER A   7      40.060  -0.429 -13.992  0.00  0.00     0.280 C 
BRANCH  30  31
ATOM     31  OG  SER A   7      39.561   0.613 -14.832  0.00  0.00    -0.680 OA
ATOM     32  HG  SER A   7      40.338   0.994 -15.284  0.00  0.00     0.400 HD
ENDBRANCH  30  31
ENDBRANCH  29  30
BRANCH  29  33
ATOM     33  C   SER A   7      39.503   0.831 -11.852  0.00  0.00     0.569 C 
ATOM     34  O   SER A   7      39.948   1.865 -12.352  0.00  0.00    -0.570 OA
ATOM     35  N   NHH A   8      39.106   0.819 -10.547  0.00  0.00    -0.800 N 
ATOM     36  HN1 NHH A   8      38.873  -0.025 -10.043  0.00  0.00     0.370 HD
ATOM     37  HN2 NHH A   8      39.276   1.661 -10.010  0.00  0.00     0.370 HD
ENDBRANCH  29  33
ENDBRANCH  27  29
ENDBRANCH  13  25
ENDBRANCH  11  13
ENDBRANCH   5   9
ENDBRANCH   3   5
BRANCH   1  38
ATOM     38  CA  HIS A   4      31.546   3.480 -12.369  0.00  0.00     0.361 C 
BRANCH  38  39
ATOM     39  N   HIS A   4      31.333   4.264 -11.151  0.00  0.00    -0.730 N 
ATOM     40  HN  HIS A   4      31.622   5.240 -11.187  0.00  0.00     0.370 HD
ATOM     41  C   ALA A   3      30.870   3.713  -9.983  0.00  0.00     0.569 C 
ATOM     42  O   ALA A   3      30.537   2.529  -9.888  0.00  0.00    -0.570 OA
BRANCH  41  43
ATOM     43  CA  ALA A   3      30.780   4.681  -8.787  0.00  0.00     0.361 C 
ATOM     44  CB  ALA A   3      29.332   4.879  -8.351  0.00  0.00     0.000 C 
BRANCH  43  45
ATOM     45  N   ALA A   3      31.379   5.948  -9.200  0.00  0.00    -0.730 N 
ATOM     46  HN  ALA A   3      31.538   6.060 -10.198  0.00  0.00     0.370 HD
ATOM     47  C   ALA A   2      31.819   6.888  -8.307  0.00  0.00     0.569 C 
ATOM     48  O   ALA A   2      31.700   6.769  -7.086  0.00  0.00    -0.570 OA
BRANCH  47  49
ATOM     49  CA  ALA A   2      32.475   8.139  -8.923  0.00  0.00     0.361 C 
ATOM     50  CB  ALA A   2      33.621   7.765  -9.853  0.00  0.00     0.000 C 
BRANCH  49  51
ATOM     51  N   ALA A   2      32.952   8.954  -7.803  0.00  0.00    -0.730 N 
ATOM     52  HN  ALA A   2      33.097   8.434  -6.937  0.00  0.00     0.370 HD
ATOM     53  C   PRO A   1      32.995  10.316  -7.844  0.00  0.00     0.569 C 
ATOM     54  O   PRO A   1      32.711  10.992  -8.834  0.00  0.00    -0.570 OA
BRANCH  53  55
ATOM     55  CA  PRO A   1      33.455  11.037  -6.566  0.00  0.00     0.564 C 
ATOM     56  CB  PRO A   1      34.941  11.366  -6.557  0.00  0.00     0.000 C 
ATOM     57  CG  PRO A   1      35.584  10.163  -5.883  0.00  0.00     0.000 C 
ATOM     58  CD  PRO A   1      34.612   9.826  -4.773  0.00  0.00     0.503 C 
ATOM     59  N   PRO A   1      33.278  10.092  -5.380  0.00  0.00    -0.906 N 
ATOM     60  H1  PRO A   1      32.587  10.437  -4.703  0.00  0.00     0.450 HD
ATOM     61  H2  PRO A   1      32.885   9.215  -5.777  0.00  0.00     0.450 HD
ENDBRANCH  53  55
ENDBRANCH  49  51
ENDBRANCH  47  49
ENDBRANCH  43  45
ENDBRANCH  41  43
ENDBRANCH  38  39
BRANCH  38  62
ATOM     62  CB  HIS A   4      30.749   4.035 -13.566  0.00  0.00     0.180 C 
BRANCH  62  63
ATOM     63  CG  HIS A   4      29.874   2.993 -14.176  0.00  0.00    -0.332 A 
ATOM     64  ND1 HIS A   4      29.137   3.224 -15.314  0.00  0.00     0.033 N 
ATOM     65  CE1 HIS A   4      28.440   2.084 -15.590  0.00  0.00     0.187 A 
ATOM     66  HD1 HIS A   4      29.091   4.102 -15.825  0.00  0.00     0.270 HD
ATOM     67  NE2 HIS A   4      28.690   1.142 -14.709  0.00  0.00    -0.565 NA
ATOM     68  CD2 HIS A   4      29.585   1.693 -13.828  0.00  0.00     0.227 A 
ENDBRANCH  62  63
ENDBRANCH  38  62
ENDBRANCH   1  38
TORSDOF 21
ENDMDL
MODEL 9
REMARK VINA RESULT:      -9.9      2.594      6.228
REMARK  21 active torsions:
REMARK  status: ('A' for Active; 'I' for Inactive)
REMARK    1  A    between atoms: CA_2  and  C_3 
REMARK       I    between atoms: C_3  and  N_10 
REMARK    2  A    between atoms: CA_11  and  N_10 
REMARK    3  A    between atoms: CA_11  and  C_12 
REMARK       I    between atoms: C_12  and  N_16 
REMARK    4  A    between atoms: CA_17  and  N_16 
REMARK    5  A    between atoms: CA_17  and  C_18 
REMARK       I    between atoms: C_18  and  N_22 
REMARK    6  A    between atoms: CA_23  and  N_22 
REMARK    7  A    between atoms: CA_23  and  CB_26 
REMARK    8  A    between atoms: CA_23  and  C_24 
REMARK       I    between atoms: C_24  and  N_34 
REMARK    9  A    between atoms: CB_26  and  CG_27 
REMARK   10  A    between atoms: CA_35  and  N_34 
REMARK   11  A    between atoms: CA_35  and  CB_38 
REMARK   12  A    between atoms: CA_35  and  C_36 
REMARK       I    between atoms: C_36  and  N_42 
REMARK   13  A    between atoms: CB_38  and  OG_39 
REMARK   14  A    between atoms: CA_43  and  N_42 
REMARK   15  A    between atoms: CA_43  and  CB_46 
REMARK   16  A    between atoms: CA_43  and  C_44 
REMARK       I    between atoms: C_44  and  N_58 
REMARK   17  A    between atoms: CB_46  and  CG_47 
REMARK   18  A    between atoms: CA_59  and  N_58 
REMARK   19  A    between atoms: CA_59  and  CB_62 
REMARK   20  A    between atoms: CA_59  and  C_60 
REMARK       I    between atoms: C_60  and  N_66 
REMARK   21  A    between atoms: CB_62  and  OG_63 
ROOT
ATOM      1  C   HIS A   4      32.984   2.860 -12.196  0.00  0.00     0.569 C 
ATOM      2  O   HIS A   4      32.980   3.851 -12.925  0.00  0.00    -0.570 OA
ATOM      3  N   SER A   5      34.139   2.225 -11.815  0.00  0.00    -0.730 N 
ATOM      4  HN  SER A   5      34.099   1.332 -11.324  0.00  0.00     0.370 HD
ENDROOT
BRANCH   3   5
ATOM      5  CA  SER A   5      35.445   2.578 -12.382  0.00  0.00     0.361 C 
BRANCH   5   6
ATOM      6  CB  SER A   5      36.306   3.346 -11.373  0.00  0.00     0.280 C 
BRANCH   6   7
ATOM      7  OG  SER A   5      36.085   2.886 -10.040  0.00  0.00    -0.680 OA
ATOM      8  HG  SER A   5      35.279   2.339 -10.062  0.00  0.00     0.400 HD
ENDBRANCH   6   7
ENDBRANCH   5   6
BRANCH   5   9
ATOM      9  C   SER A   5      36.110   1.269 -12.845  0.00  0.00     0.569 C 
ATOM     10  O   SER A   5      36.706   1.194 -13.922  0.00  0.00    -0.570 OA
ATOM     11  N   TRP A   6      36.048   0.218 -11.968  0.00  0.00    -0.730 N 
ATOM     12  HN  TRP A   6      35.574   0.298 -11.072  0.00  0.00     0.370 HD
BRANCH  11  13
ATOM     13  CA  TRP A   6      36.614  -1.095 -12.286  0.00  0.00     0.361 C 
BRANCH  13  14
ATOM     14  CB  TRP A   6      37.304  -1.719 -11.061  0.00  0.00     0.181 C 
BRANCH  14  15
ATOM     15  CG  TRP A   6      37.739  -0.710 -10.045  0.00  0.00    -0.181 A 
ATOM     16  CD1 TRP A   6      36.988  -0.237  -8.987  0.00  0.00    -0.152 A 
ATOM     17  NE1 TRP A   6      37.718   0.723  -8.337  0.00  0.00     0.033 N 
ATOM     18  CE2 TRP A   6      38.944   0.879  -8.941  0.00  0.00    -0.152 A 
ATOM     19  HE1 TRP A   6      37.401   1.258  -7.540  0.00  0.00     0.270 HD
ATOM     20  CD2 TRP A   6      38.993  -0.016 -10.009  0.00  0.00     0.000 A 
ATOM     21  CZ2 TRP A   6      39.997   1.747  -8.629  0.00  0.00     0.000 A 
ATOM     22  CE3 TRP A   6      40.156  -0.044 -10.807  0.00  0.00     0.000 A 
ATOM     23  CZ3 TRP A   6      41.220   0.814 -10.508  0.00  0.00     0.000 A 
ATOM     24  CH2 TRP A   6      41.138   1.696  -9.434  0.00  0.00     0.000 A 
ENDBRANCH  14  15
ENDBRANCH  13  14
BRANCH  13  25
ATOM     25  C   TRP A   6      35.443  -1.973 -12.764  0.00  0.00     0.569 C 
ATOM     26  O   TRP A   6      35.165  -2.095 -13.958  0.00  0.00    -0.570 OA
ATOM     27  N   SER A   7      34.735  -2.601 -11.767  0.00  0.00    -0.730 N 
ATOM     28  HN  SER A   7      34.857  -2.275 -10.808  0.00  0.00     0.370 HD
BRANCH  27  29
ATOM     29  CA  SER A   7      33.441  -3.239 -12.026  0.00  0.00     0.361 C 
BRANCH  29  30
ATOM     30  CB  SER A   7      33.562  -4.765 -12.107  0.00  0.00     0.280 C 
BRANCH  30  31
ATOM     31  OG  SER A   7      34.925  -5.189 -12.074  0.00  0.00    -0.680 OA
ATOM     32  HG  SER A   7      35.164  -5.267 -11.131  0.00  0.00     0.400 HD
ENDBRANCH  30  31
ENDBRANCH  29  30
BRANCH  29  33
ATOM     33  C   SER A   7      32.472  -2.801 -10.913  0.00  0.00     0.569 C 
ATOM     34  O   SER A   7      32.558  -1.714 -10.340  0.00  0.00    -0.570 OA
ATOM     35  N   NHH A   8      31.460  -3.661 -10.599  0.00  0.00    -0.800 N 
ATOM     36  HN1 NHH A   8      31.419  -4.616 -10.923  0.00  0.00     0.370 HD
ATOM     37  HN2 NHH A   8      30.856  -3.394  -9.831  0.00  0.00     0.370 HD
ENDBRANCH  29  33
ENDBRANCH  27  29
ENDBRANCH  13  25
ENDBRANCH  11  13
ENDBRANCH   5   9
ENDBRANCH   3   5
BRANCH   1  38
ATOM     38  CA  HIS A   4      31.688   2.252 -11.629  0.00  0.00     0.361 C 
BRANCH  38  39
ATOM     39  N   HIS A   4      30.848   3.352 -11.151  0.00  0.00    -0.730 N 
ATOM     40  HN  HIS A   4      30.244   3.792 -11.843  0.00  0.00     0.370 HD
ATOM     41  C   ALA A   3      30.929   3.848  -9.874  0.00  0.00     0.569 C 
ATOM     42  O   ALA A   3      31.668   3.364  -9.013  0.00  0.00    -0.570 OA
BRANCH  41  43
ATOM     43  CA  ALA A   3      30.017   5.055  -9.576  0.00  0.00     0.361 C 
ATOM     44  CB  ALA A   3      30.126   5.477  -8.115  0.00  0.00     0.000 C 
BRANCH  43  45
ATOM     45  N   ALA A   3      28.648   4.663  -9.906  0.00  0.00    -0.730 N 
ATOM     46  HN  ALA A   3      28.348   3.757  -9.555  0.00  0.00     0.370 HD
ATOM     47  C   ALA A   2      27.845   5.398 -10.737  0.00  0.00     0.569 C 
ATOM     48  O   ALA A   2      28.187   6.475 -11.231  0.00  0.00    -0.570 OA
BRANCH  47  49
ATOM     49  CA  ALA A   2      26.451   4.804 -11.016  0.00  0.00     0.361 C 
ATOM     50  CB  ALA A   2      25.508   5.024  -9.841  0.00  0.00     0.000 C 
BRANCH  49  51
ATOM     51  N   ALA A   2      26.650   3.375 -11.270  0.00  0.00    -0.730 N 
ATOM     52  HN  ALA A   2      27.294   2.919 -10.623  0.00  0.00     0.370 HD
ATOM     53  C   PRO A   1      26.190   2.751 -12.392  0.00  0.00     0.569 C 
ATOM     54  O   PRO A   1      25.510   3.297 -13.262  0.00  0.00    -0.570 OA
BRANCH  53  55
ATOM     55  CA  PRO A   1      26.536   1.262 -12.551  0.00  0.00     0.564 C 
ATOM     56  CB  PRO A   1      25.541   0.497 -13.414  0.00  0.00     0.000 C 
ATOM     57  CG  PRO A   1      24.523  -0.039 -12.419  0.00  0.00     0.000 C 
ATOM     58  CD  PRO A   1      25.375  -0.457 -11.241  0.00  0.00     0.503 C 
ATOM     59  N   PRO A   1      26.437   0.587 -11.186  0.00  0.00    -0.906 N 
ATOM     60  H1  PRO A   1      27.342   0.228 -10.859  0.00  0.00     0.450 HD
ATOM     61  H2  PRO A   1      26.163   1.339 -10.521  0.00  0.00     0.450 HD
ENDBRANCH  53  55
ENDBRANCH  49  51
ENDBRANCH  47  49
ENDBRANCH  43  45
ENDBRANCH  41  43
ENDBRANCH  38  39
BRANCH  38  62
ATOM     62  CB  HIS A   4      30.977   1.397 -12.697  0.00  0.00     0.180 C 
BRANCH  62  63
ATOM     63  CG  HIS A   4      30.208   0.277 -12.084  0.00  0.00    -0.332 A 
ATOM     64  ND1 HIS A   4      30.026   0.166 -10.725  0.00  0.00     0.033 N 
ATOM     65  CE1 HIS A   4      29.302  -0.968 -10.499  0.00  0.00     0.187 A 
ATOM     66  HD1 HIS A   4      30.404   0.795 -10.020  0.00  0.00     0.270 HD
ATOM     67  NE2 HIS A   4      29.005  -1.581 -11.622  0.00  0.00    -0.565 NA
ATOM     68  CD2 HIS A   4      29.557  -0.813 -12.615  0.00  0.00     0.227 A 
ENDBRANCH  62  63
ENDBRANCH  38  62
ENDBRANCH   1  38
TORSDOF 21
ENDMDL
