MODEL 1
REMARK VINA RESULT:     -10.1      0.000      0.000
REMARK  21 active torsions:
REMARK  status: ('A' for Active; 'I' for Inactive)
REMARK    1  A    between atoms: CA_2  and  C_3 
REMARK       I    between atoms: C_3  and  N_10 
REMARK    2  A    between atoms: CA_11  and  N_10 
REMARK    3  A    between atoms: CA_11  and  C_12 
REMARK       I    between atoms: C_12  and  N_16 
REMARK    4  A    between atoms: CA_17  and  N_16 
REMARK    5  A    between atoms: CA_17  and  CB_20 
REMARK    6  A    between atoms: CA_17  and  C_18 
REMARK       I    between atoms: C_18  and  N_28 
REMARK    7  A    between atoms: CB_20  and  CG_21 
REMARK    8  A    between atoms: CA_29  and  N_28 
REMARK    9  A    between atoms: CA_29  and  CB_32 
REMARK   10  A    between atoms: CA_29  and  C_30 
REMARK       I    between atoms: C_30  and  N_40 
REMARK   11  A    between atoms: CB_32  and  CG_33 
REMARK   12  A    between atoms: CA_41  and  N_40 
REMARK   13  A    between atoms: CA_41  and  CB_44 
REMARK   14  A    between atoms: CA_41  and  C_42 
REMARK       I    between atoms: C_42  and  N_48 
REMARK   15  A    between atoms: CB_44  and  OG_45 
REMARK   16  A    between atoms: CA_49  and  N_48 
REMARK   17  A    between atoms: CA_49  and  C_50 
REMARK       I    between atoms: C_50  and  N_54 
REMARK   18  A    between atoms: CA_55  and  N_54 
REMARK   19  A    between atoms: CA_55  and  CB_58 
REMARK   20  A    between atoms: CA_55  and  C_56 
REMARK       I    between atoms: C_56  and  N_62 
REMARK   21  A    between atoms: CB_58  and  OG_59 
ROOT
ATOM      1  CA  HIS A   4      34.882   3.374 -11.313  0.00  0.00     0.225 C 
ENDROOT
BRANCH   1   2
ATOM      2  N   HIS A   4      36.017   2.478 -11.565  0.00  0.00    -0.262 N 
ATOM      3  HN  HIS A   4      36.153   2.223 -12.533  0.00  0.00     0.189 HD
ATOM      4  C   PHE A   3      36.726   1.803 -10.644  0.00  0.00     0.206 C 
ATOM      5  O   PHE A   3      36.661   2.025  -9.436  0.00  0.00    -0.394 OA
BRANCH   4   6
ATOM      6  CA  PHE A   3      37.600   0.653 -11.153  0.00  0.00     0.223 C 
BRANCH   6   7
ATOM      7  N   PHE A   3      36.809  -0.151 -12.080  0.00  0.00    -0.262 N 
ATOM      8  HN  PHE A   3      36.302   0.343 -12.803  0.00  0.00     0.189 HD
ATOM      9  C   ALA A   2      36.622  -1.470 -11.943  0.00  0.00     0.204 C 
ATOM     10  O   ALA A   2      37.177  -2.141 -11.071  0.00  0.00    -0.394 OA
BRANCH   9  11
ATOM     11  CA  ALA A   2      35.680  -2.143 -12.941  0.00  0.00     0.208 C 
ATOM     12  CB  ALA A   2      35.169  -1.132 -13.974  0.00  0.00     0.059 C 
BRANCH  11  13
ATOM     13  N   ALA A   2      34.558  -2.716 -12.212  0.00  0.00    -0.261 N 
ATOM     14  HN  ALA A   2      34.085  -2.085 -11.579  0.00  0.00     0.189 HD
ATOM     15  C   PRO A   1      34.205  -4.007 -12.259  0.00  0.00     0.241 C 
ATOM     16  O   PRO A   1      34.751  -4.836 -12.987  0.00  0.00    -0.390 OA
BRANCH  15  17
ATOM     17  CA  PRO A   1      33.052  -4.454 -11.361  0.00  0.00     0.309 C 
ATOM     18  CB  PRO A   1      31.961  -5.197 -12.150  0.00  0.00     0.098 C 
ATOM     19  CG  PRO A   1      30.882  -4.138 -12.368  0.00  0.00     0.074 C 
ATOM     20  CD  PRO A   1      30.999  -3.334 -11.078  0.00  0.00     0.280 C 
ATOM     21  N   PRO A   1      32.438  -3.249 -10.765  0.00  0.00    -0.414 N 
ATOM     22  H1  PRO A   1      32.619  -3.173  -9.774  0.00  0.00     0.369 HD
ATOM     23  H2  PRO A   1      32.863  -2.467 -11.260  0.00  0.00     0.369 HD
ENDBRANCH  15  17
ENDBRANCH  11  13
ENDBRANCH   9  11
ENDBRANCH   6   7
BRANCH   6  24
ATOM     24  CB  PHE A   3      38.893   1.126 -11.839  0.00  0.00     0.116 C 
BRANCH  24  25
ATOM     25  CG  PHE A   3      39.625   0.046 -12.615  0.00  0.00    -0.039 A 
ATOM     26  CD1 PHE A   3      39.488  -0.053 -14.012  0.00  0.00    -0.004 A 
ATOM     27  CE1 PHE A   3      40.114  -1.103 -14.709  0.00  0.00    -0.009 A 
ATOM     28  CZ  PHE A   3      40.879  -2.054 -14.016  0.00  0.00    -0.013 A 
ATOM     29  CE2 PHE A   3      41.029  -1.950 -12.622  0.00  0.00    -0.009 A 
ATOM     30  CD2 PHE A   3      40.406  -0.901 -11.923  0.00  0.00    -0.004 A 
ENDBRANCH  24  25
ENDBRANCH   6  24
ENDBRANCH   4   6
ENDBRANCH   1   2
BRANCH   1  31
ATOM     31  CB  HIS A   4      35.283   4.821 -11.672  0.00  0.00     0.141 C 
BRANCH  31  32
ATOM     32  CG  HIS A   4      34.264   5.883 -11.324  0.00  0.00     0.056 A 
ATOM     33  ND1 HIS A   4      33.397   6.490 -12.205  0.00  0.00    -0.262 N 
ATOM     34  CE1 HIS A   4      32.670   7.387 -11.516  0.00  0.00     0.202 A 
ATOM     35  HD1 HIS A   4      33.303   6.279 -13.189  0.00  0.00     0.239 HD
ATOM     36  NE2 HIS A   4      33.039   7.413 -10.226  0.00  0.00    -0.344 NA
ATOM     37  CD2 HIS A   4      34.040   6.447 -10.094  0.00  0.00     0.005 A 
ENDBRANCH  31  32
ENDBRANCH   1  31
BRANCH   1  38
ATOM     38  C   HIS A   4      33.572   2.952 -12.002  0.00  0.00     0.206 C 
ATOM     39  O   HIS A   4      33.334   3.316 -13.154  0.00  0.00    -0.394 OA
ATOM     40  N   SER A   5      32.725   2.184 -11.309  0.00  0.00    -0.261 N 
ATOM     41  HN  SER A   5      32.954   1.929 -10.359  0.00  0.00     0.188 HD
BRANCH  40  42
ATOM     42  CA  SER A   5      31.513   1.590 -11.855  0.00  0.00     0.236 C 
BRANCH  42  43
ATOM     43  CB  SER A   5      31.751   0.076 -12.034  0.00  0.00     0.206 C 
BRANCH  43  44
ATOM     44  OG  SER A   5      32.927  -0.354 -11.373  0.00  0.00    -0.390 OA
ATOM     45  HG  SER A   5      32.832  -0.141 -10.434  0.00  0.00     0.210 HD
ENDBRANCH  43  44
ENDBRANCH  42  43
BRANCH  42  46
ATOM     46  C   SER A   5      30.329   1.893 -10.921  0.00  0.00     0.206 C 
ATOM     47  O   SER A   5      30.057   1.134  -9.990  0.00  0.00    -0.394 OA
ATOM     48  N   ALA A   6      29.611   2.993 -11.184  0.00  0.00    -0.264 N 
ATOM     49  HN  ALA A   6      29.892   3.585 -11.952  0.00  0.00     0.188 HD
BRANCH  48  50
ATOM     50  CA  ALA A   6      28.312   3.286 -10.601  0.00  0.00     0.208 C 
ATOM     51  CB  ALA A   6      28.213   4.775 -10.250  0.00  0.00     0.059 C 
BRANCH  50  52
ATOM     52  C   ALA A   6      27.263   2.826 -11.617  0.00  0.00     0.204 C 
ATOM     53  O   ALA A   6      27.233   3.307 -12.748  0.00  0.00    -0.394 OA
ATOM     54  N   SER A   7      26.444   1.840 -11.224  0.00  0.00    -0.257 N 
ATOM     55  HN  SER A   7      26.558   1.457 -10.296  0.00  0.00     0.189 HD
BRANCH  54  56
ATOM     56  CA  SER A   7      25.535   1.148 -12.133  0.00  0.00     0.295 C 
BRANCH  56  57
ATOM     57  CB  SER A   7      25.352  -0.309 -11.663  0.00  0.00     0.212 C 
BRANCH  57  58
ATOM     58  OG  SER A   7      24.276  -0.946 -12.335  0.00  0.00    -0.390 OA
ATOM     59  HG  SER A   7      23.856  -0.299 -12.919  0.00  0.00     0.210 HD
ENDBRANCH  57  58
ENDBRANCH  56  57
BRANCH  56  60
ATOM     60  C   SER A   7      24.217   1.927 -12.275  0.00  0.00     0.392 C 
ATOM     61  O   SER A   7      23.225   1.583 -11.639  0.00  0.00    -0.295 OA
ATOM     62  N   NHH A   8      24.169   2.954 -13.123  0.00  0.00    -0.205 N 
ATOM     63  HN1 NHH A   8      25.018   3.203 -13.629  0.00  0.00     0.454 HD
ATOM     64  HN2 NHH A   8      23.316   3.479 -13.234  0.00  0.00     0.454 HD
ENDBRANCH  56  60
ENDBRANCH  54  56
ENDBRANCH  50  52
ENDBRANCH  48  50
ENDBRANCH  42  46
ENDBRANCH  40  42
ENDBRANCH   1  38
TORSDOF 21
ENDMDL
MODEL 2
REMARK VINA RESULT:     -10.1      1.512      2.330
REMARK  21 active torsions:
REMARK  status: ('A' for Active; 'I' for Inactive)
REMARK    1  A    between atoms: CA_2  and  C_3 
REMARK       I    between atoms: C_3  and  N_10 
REMARK    2  A    between atoms: CA_11  and  N_10 
REMARK    3  A    between atoms: CA_11  and  C_12 
REMARK       I    between atoms: C_12  and  N_16 
REMARK    4  A    between atoms: CA_17  and  N_16 
REMARK    5  A    between atoms: CA_17  and  CB_20 
REMARK    6  A    between atoms: CA_17  and  C_18 
REMARK       I    between atoms: C_18  and  N_28 
REMARK    7  A    between atoms: CB_20  and  CG_21 
REMARK    8  A    between atoms: CA_29  and  N_28 
REMARK    9  A    between atoms: CA_29  and  CB_32 
REMARK   10  A    between atoms: CA_29  and  C_30 
REMARK       I    between atoms: C_30  and  N_40 
REMARK   11  A    between atoms: CB_32  and  CG_33 
REMARK   12  A    between atoms: CA_41  and  N_40 
REMARK   13  A    between atoms: CA_41  and  CB_44 
REMARK   14  A    between atoms: CA_41  and  C_42 
REMARK       I    between atoms: C_42  and  N_48 
REMARK   15  A    between atoms: CB_44  and  OG_45 
REMARK   16  A    between atoms: CA_49  and  N_48 
REMARK   17  A    between atoms: CA_49  and  C_50 
REMARK       I    between atoms: C_50  and  N_54 
REMARK   18  A    between atoms: CA_55  and  N_54 
REMARK   19  A    between atoms: CA_55  and  CB_58 
REMARK   20  A    between atoms: CA_55  and  C_56 
REMARK       I    between atoms: C_56  and  N_62 
REMARK   21  A    between atoms: CB_58  and  OG_59 
ROOT
ATOM      1  CA  HIS A   4      34.020   2.839 -11.717  0.00  0.00     0.225 C 
ENDROOT
BRANCH   1   2
ATOM      2  N   HIS A   4      35.189   1.982 -11.949  0.00  0.00    -0.262 N 
ATOM      3  HN  HIS A   4      34.998   1.125 -12.449  0.00  0.00     0.189 HD
ATOM      4  C   PHE A   3      36.401   2.108 -11.382  0.00  0.00     0.206 C 
ATOM      5  O   PHE A   3      36.761   3.103 -10.757  0.00  0.00    -0.394 OA
BRANCH   4   6
ATOM      6  CA  PHE A   3      37.334   0.897 -11.476  0.00  0.00     0.223 C 
BRANCH   6   7
ATOM      7  N   PHE A   3      36.687  -0.122 -12.296  0.00  0.00    -0.262 N 
ATOM      8  HN  PHE A   3      36.246   0.187 -13.153  0.00  0.00     0.189 HD
ATOM      9  C   ALA A   2      36.539  -1.397 -11.913  0.00  0.00     0.204 C 
ATOM     10  O   ALA A   2      37.018  -1.845 -10.870  0.00  0.00    -0.394 OA
BRANCH   9  11
ATOM     11  CA  ALA A   2      35.744  -2.312 -12.845  0.00  0.00     0.208 C 
ATOM     12  CB  ALA A   2      35.326  -1.563 -14.116  0.00  0.00     0.059 C 
BRANCH  11  13
ATOM     13  N   ALA A   2      34.564  -2.786 -12.139  0.00  0.00    -0.261 N 
ATOM     14  HN  ALA A   2      34.127  -2.114 -11.523  0.00  0.00     0.189 HD
ATOM     15  C   PRO A   1      34.111  -4.046 -12.184  0.00  0.00     0.241 C 
ATOM     16  O   PRO A   1      34.607  -4.923 -12.891  0.00  0.00    -0.390 OA
BRANCH  15  17
ATOM     17  CA  PRO A   1      32.905  -4.392 -11.311  0.00  0.00     0.309 C 
ATOM     18  CB  PRO A   1      31.784  -5.069 -12.117  0.00  0.00     0.098 C 
ATOM     19  CG  PRO A   1      30.791  -3.938 -12.383  0.00  0.00     0.074 C 
ATOM     20  CD  PRO A   1      30.932  -3.121 -11.104  0.00  0.00     0.280 C 
ATOM     21  N   PRO A   1      32.365  -3.135 -10.753  0.00  0.00    -0.414 N 
ATOM     22  H1  PRO A   1      32.525  -3.053  -9.758  0.00  0.00     0.369 HD
ATOM     23  H2  PRO A   1      32.859  -2.395 -11.249  0.00  0.00     0.369 HD
ENDBRANCH  15  17
ENDBRANCH  11  13
ENDBRANCH   9  11
ENDBRANCH   6   7
BRANCH   6  24
ATOM     24  CB  PHE A   3      38.719   1.237 -12.055  0.00  0.00     0.116 C 
BRANCH  24  25
ATOM     25  CG  PHE A   3      39.431   0.068 -12.710  0.00  0.00    -0.039 A 
ATOM     26  CD1 PHE A   3      40.211  -0.819 -11.945  0.00  0.00    -0.004 A 
ATOM     27  CE1 PHE A   3      40.924  -1.855 -12.576  0.00  0.00    -0.009 A 
ATOM     28  CZ  PHE A   3      40.858  -2.010 -13.970  0.00  0.00    -0.013 A 
ATOM     29  CE2 PHE A   3      40.070  -1.134 -14.736  0.00  0.00    -0.009 A 
ATOM     30  CD2 PHE A   3      39.354  -0.100 -14.107  0.00  0.00    -0.004 A 
ENDBRANCH  24  25
ENDBRANCH   6  24
ENDBRANCH   4   6
ENDBRANCH   1   2
BRANCH   1  31
ATOM     31  CB  HIS A   4      33.992   3.963 -12.775  0.00  0.00     0.141 C 
BRANCH  31  32
ATOM     32  CG  HIS A   4      34.013   5.373 -12.226  0.00  0.00     0.056 A 
ATOM     33  ND1 HIS A   4      32.912   6.174 -12.015  0.00  0.00    -0.262 N 
ATOM     34  CE1 HIS A   4      33.347   7.354 -11.540  0.00  0.00     0.202 A 
ATOM     35  HD1 HIS A   4      31.948   5.912 -12.163  0.00  0.00     0.239 HD
ATOM     36  NE2 HIS A   4      34.686   7.371 -11.452  0.00  0.00    -0.344 NA
ATOM     37  CD2 HIS A   4      35.114   6.109 -11.872  0.00  0.00     0.005 A 
ENDBRANCH  31  32
ENDBRANCH   1  31
BRANCH   1  38
ATOM     38  C   HIS A   4      32.680   2.084 -11.644  0.00  0.00     0.206 C 
ATOM     39  O   HIS A   4      32.651   0.914 -11.266  0.00  0.00    -0.394 OA
ATOM     40  N   SER A   5      31.573   2.747 -11.998  0.00  0.00    -0.261 N 
ATOM     41  HN  SER A   5      31.651   3.700 -12.323  0.00  0.00     0.188 HD
BRANCH  40  42
ATOM     42  CA  SER A   5      30.221   2.227 -11.859  0.00  0.00     0.236 C 
BRANCH  42  43
ATOM     43  CB  SER A   5      29.318   3.356 -11.320  0.00  0.00     0.206 C 
BRANCH  43  44
ATOM     44  OG  SER A   5      27.951   2.988 -11.333  0.00  0.00    -0.390 OA
ATOM     45  HG  SER A   5      27.612   3.079 -10.431  0.00  0.00     0.210 HD
ENDBRANCH  43  44
ENDBRANCH  42  43
BRANCH  42  46
ATOM     46  C   SER A   5      29.740   1.687 -13.217  0.00  0.00     0.206 C 
ATOM     47  O   SER A   5      30.065   2.248 -14.265  0.00  0.00    -0.394 OA
ATOM     48  N   ALA A   6      28.946   0.608 -13.198  0.00  0.00    -0.264 N 
ATOM     49  HN  ALA A   6      28.727   0.181 -12.309  0.00  0.00     0.188 HD
BRANCH  48  50
ATOM     50  CA  ALA A   6      28.175   0.133 -14.335  0.00  0.00     0.208 C 
ATOM     51  CB  ALA A   6      28.450  -1.356 -14.577  0.00  0.00     0.059 C 
BRANCH  50  52
ATOM     52  C   ALA A   6      26.708   0.443 -14.028  0.00  0.00     0.204 C 
ATOM     53  O   ALA A   6      25.960   0.868 -14.907  0.00  0.00    -0.394 OA
ATOM     54  N   SER A   7      26.284   0.162 -12.787  0.00  0.00    -0.257 N 
ATOM     55  HN  SER A   7      26.941  -0.234 -12.130  0.00  0.00     0.189 HD
BRANCH  54  56
ATOM     56  CA  SER A   7      24.879   0.200 -12.395  0.00  0.00     0.295 C 
BRANCH  56  57
ATOM     57  CB  SER A   7      24.546  -1.052 -11.560  0.00  0.00     0.212 C 
BRANCH  57  58
ATOM     58  OG  SER A   7      25.562  -1.335 -10.611  0.00  0.00    -0.390 OA
ATOM     59  HG  SER A   7      25.834  -0.503 -10.198  0.00  0.00     0.210 HD
ENDBRANCH  57  58
ENDBRANCH  56  57
BRANCH  56  60
ATOM     60  C   SER A   7      24.551   1.526 -11.689  0.00  0.00     0.392 C 
ATOM     61  O   SER A   7      23.770   2.322 -12.201  0.00  0.00    -0.295 OA
ATOM     62  N   NHH A   8      25.157   1.801 -10.534  0.00  0.00    -0.205 N 
ATOM     63  HN1 NHH A   8      25.797   1.109 -10.146  0.00  0.00     0.454 HD
ATOM     64  HN2 NHH A   8      24.959   2.665 -10.052  0.00  0.00     0.454 HD
ENDBRANCH  56  60
ENDBRANCH  54  56
ENDBRANCH  50  52
ENDBRANCH  48  50
ENDBRANCH  42  46
ENDBRANCH  40  42
ENDBRANCH   1  38
TORSDOF 21
ENDMDL
MODEL 3
REMARK VINA RESULT:      -9.8      2.503     10.892
REMARK  21 active torsions:
REMARK  status: ('A' for Active; 'I' for Inactive)
REMARK    1  A    between atoms: CA_2  and  C_3 
REMARK       I    between atoms: C_3  and  N_10 
REMARK    2  A    between atoms: CA_11  and  N_10 
REMARK    3  A    between atoms: CA_11  and  C_12 
REMARK       I    between atoms: C_12  and  N_16 
REMARK    4  A    between atoms: CA_17  and  N_16 
REMARK    5  A    between atoms: CA_17  and  CB_20 
REMARK    6  A    between atoms: CA_17  and  C_18 
REMARK       I    between atoms: C_18  and  N_28 
REMARK    7  A    between atoms: CB_20  and  CG_21 
REMARK    8  A    between atoms: CA_29  and  N_28 
REMARK    9  A    between atoms: CA_29  and  CB_32 
REMARK   10  A    between atoms: CA_29  and  C_30 
REMARK       I    between atoms: C_30  and  N_40 
REMARK   11  A    between atoms: CB_32  and  CG_33 
REMARK   12  A    between atoms: CA_41  and  N_40 
REMARK   13  A    between atoms: CA_41  and  CB_44 
REMARK   14  A    between atoms: CA_41  and  C_42 
REMARK       I    between atoms: C_42  and  N_48 
REMARK   15  A    between atoms: CB_44  and  OG_45 
REMARK   16  A    between atoms: CA_49  and  N_48 
REMARK   17  A    between atoms: CA_49  and  C_50 
REMARK       I    between atoms: C_50  and  N_54 
REMARK   18  A    between atoms: CA_55  and  N_54 
REMARK   19  A    between atoms: CA_55  and  CB_58 
REMARK   20  A    between atoms: CA_55  and  C_56 
REMARK       I    between atoms: C_56  and  N_62 
REMARK   21  A    between atoms: CB_58  and  OG_59 
ROOT
ATOM      1  CA  HIS A   4      33.244  -0.523 -11.832  0.00  0.00     0.225 C 
ENDROOT
BRANCH   1   2
ATOM      2  N   HIS A   4      31.861  -0.055 -11.988  0.00  0.00    -0.262 N 
ATOM      3  HN  HIS A   4      31.333  -0.519 -12.713  0.00  0.00     0.189 HD
ATOM      4  C   PHE A   3      31.320   1.045 -11.438  0.00  0.00     0.206 C 
ATOM      5  O   PHE A   3      31.856   1.693 -10.541  0.00  0.00    -0.394 OA
BRANCH   4   6
ATOM      6  CA  PHE A   3      29.998   1.535 -12.036  0.00  0.00     0.223 C 
BRANCH   6   7
ATOM      7  N   PHE A   3      30.239   2.809 -12.707  0.00  0.00    -0.262 N 
ATOM      8  HN  PHE A   3      30.966   2.829 -13.410  0.00  0.00     0.189 HD
ATOM      9  C   ALA A   2      29.646   3.956 -12.352  0.00  0.00     0.204 C 
ATOM     10  O   ALA A   2      28.774   4.022 -11.484  0.00  0.00    -0.394 OA
BRANCH   9  11
ATOM     11  CA  ALA A   2      30.089   5.220 -13.089  0.00  0.00     0.208 C 
ATOM     12  CB  ALA A   2      30.271   4.942 -14.586  0.00  0.00     0.059 C 
BRANCH  11  13
ATOM     13  N   ALA A   2      31.345   5.680 -12.515  0.00  0.00    -0.261 N 
ATOM     14  HN  ALA A   2      32.175   5.217 -12.860  0.00  0.00     0.189 HD
ATOM     15  C   PRO A   1      31.440   6.573 -11.522  0.00  0.00     0.241 C 
ATOM     16  O   PRO A   1      30.472   7.158 -11.036  0.00  0.00    -0.390 OA
BRANCH  15  17
ATOM     17  CA  PRO A   1      32.838   6.878 -10.981  0.00  0.00     0.309 C 
ATOM     18  CB  PRO A   1      33.153   6.072  -9.710  0.00  0.00     0.098 C 
ATOM     19  CG  PRO A   1      32.909   7.068  -8.577  0.00  0.00     0.074 C 
ATOM     20  CD  PRO A   1      33.354   8.370  -9.233  0.00  0.00     0.280 C 
ATOM     21  N   PRO A   1      32.894   8.313 -10.633  0.00  0.00    -0.414 N 
ATOM     22  H1  PRO A   1      33.485   8.839 -11.262  0.00  0.00     0.369 HD
ATOM     23  H2  PRO A   1      31.931   8.637 -10.704  0.00  0.00     0.369 HD
ENDBRANCH  15  17
ENDBRANCH  11  13
ENDBRANCH   9  11
ENDBRANCH   6   7
BRANCH   6  24
ATOM     24  CB  PHE A   3      29.365   0.535 -13.019  0.00  0.00     0.116 C 
BRANCH  24  25
ATOM     25  CG  PHE A   3      27.880   0.303 -12.811  0.00  0.00    -0.039 A 
ATOM     26  CD1 PHE A   3      26.940   0.775 -13.747  0.00  0.00    -0.004 A 
ATOM     27  CE1 PHE A   3      25.563   0.617 -13.505  0.00  0.00    -0.009 A 
ATOM     28  CZ  PHE A   3      25.120  -0.014 -12.332  0.00  0.00    -0.013 A 
ATOM     29  CE2 PHE A   3      26.055  -0.499 -11.401  0.00  0.00    -0.009 A 
ATOM     30  CD2 PHE A   3      27.432  -0.345 -11.642  0.00  0.00    -0.004 A 
ENDBRANCH  24  25
ENDBRANCH   6  24
ENDBRANCH   4   6
ENDBRANCH   1   2
BRANCH   1  31
ATOM     31  CB  HIS A   4      33.374  -1.944 -12.421  0.00  0.00     0.141 C 
BRANCH  31  32
ATOM     32  CG  HIS A   4      32.323  -2.934 -11.966  0.00  0.00     0.056 A 
ATOM     33  ND1 HIS A   4      32.246  -3.514 -10.720  0.00  0.00    -0.262 N 
ATOM     34  CE1 HIS A   4      31.190  -4.346 -10.718  0.00  0.00     0.202 A 
ATOM     35  HD1 HIS A   4      32.857  -3.327  -9.937  0.00  0.00     0.239 HD
ATOM     36  NE2 HIS A   4      30.585  -4.356 -11.916  0.00  0.00    -0.344 NA
ATOM     37  CD2 HIS A   4      31.291  -3.447 -12.708  0.00  0.00     0.005 A 
ENDBRANCH  31  32
ENDBRANCH   1  31
BRANCH   1  38
ATOM     38  C   HIS A   4      34.309   0.434 -12.398  0.00  0.00     0.206 C 
ATOM     39  O   HIS A   4      34.848   0.190 -13.477  0.00  0.00    -0.394 OA
ATOM     40  N   SER A   5      34.609   1.524 -11.682  0.00  0.00    -0.261 N 
ATOM     41  HN  SER A   5      34.155   1.669 -10.792  0.00  0.00     0.188 HD
BRANCH  40  42
ATOM     42  CA  SER A   5      35.488   2.592 -12.134  0.00  0.00     0.236 C 
BRANCH  42  43
ATOM     43  CB  SER A   5      34.668   3.897 -12.210  0.00  0.00     0.206 C 
BRANCH  43  44
ATOM     44  OG  SER A   5      33.298   3.644 -12.460  0.00  0.00    -0.390 OA
ATOM     45  HG  SER A   5      33.223   3.280 -13.353  0.00  0.00     0.210 HD
ENDBRANCH  43  44
ENDBRANCH  42  43
BRANCH  42  46
ATOM     46  C   SER A   5      36.687   2.706 -11.178  0.00  0.00     0.206 C 
ATOM     47  O   SER A   5      37.543   3.576 -11.348  0.00  0.00    -0.394 OA
ATOM     48  N   ALA A   6      36.762   1.812 -10.183  0.00  0.00    -0.264 N 
ATOM     49  HN  ALA A   6      36.023   1.131 -10.085  0.00  0.00     0.188 HD
BRANCH  48  50
ATOM     50  CA  ALA A   6      37.944   1.584  -9.368  0.00  0.00     0.208 C 
ATOM     51  CB  ALA A   6      37.536   1.162  -7.952  0.00  0.00     0.059 C 
BRANCH  50  52
ATOM     52  C   ALA A   6      38.785   0.536 -10.101  0.00  0.00     0.204 C 
ATOM     53  O   ALA A   6      38.714  -0.652  -9.793  0.00  0.00    -0.394 OA
ATOM     54  N   SER A   7      39.535   0.979 -11.120  0.00  0.00    -0.257 N 
ATOM     55  HN  SER A   7      39.506   1.962 -11.351  0.00  0.00     0.189 HD
BRANCH  54  56
ATOM     56  CA  SER A   7      40.228   0.089 -12.047  0.00  0.00     0.295 C 
BRANCH  56  57
ATOM     57  CB  SER A   7      39.314  -0.208 -13.252  0.00  0.00     0.212 C 
BRANCH  57  58
ATOM     58  OG  SER A   7      39.668   0.570 -14.385  0.00  0.00    -0.390 OA
ATOM     59  HG  SER A   7      40.394   0.124 -14.846  0.00  0.00     0.210 HD
ENDBRANCH  57  58
ENDBRANCH  56  57
BRANCH  56  60
ATOM     60  C   SER A   7      41.597   0.673 -12.434  0.00  0.00     0.392 C 
ATOM     61  O   SER A   7      42.277   0.131 -13.300  0.00  0.00    -0.295 OA
ATOM     62  N   NHH A   8      42.038   1.751 -11.786  0.00  0.00    -0.205 N 
ATOM     63  HN1 NHH A   8      41.439   2.167 -11.074  0.00  0.00     0.454 HD
ATOM     64  HN2 NHH A   8      42.934   2.151 -12.021  0.00  0.00     0.454 HD
ENDBRANCH  56  60
ENDBRANCH  54  56
ENDBRANCH  50  52
ENDBRANCH  48  50
ENDBRANCH  42  46
ENDBRANCH  40  42
ENDBRANCH   1  38
TORSDOF 21
ENDMDL
MODEL 4
REMARK VINA RESULT:      -9.7      2.794     10.333
REMARK  21 active torsions:
REMARK  status: ('A' for Active; 'I' for Inactive)
REMARK    1  A    between atoms: CA_2  and  C_3 
REMARK       I    between atoms: C_3  and  N_10 
REMARK    2  A    between atoms: CA_11  and  N_10 
REMARK    3  A    between atoms: CA_11  and  C_12 
REMARK       I    between atoms: C_12  and  N_16 
REMARK    4  A    between atoms: CA_17  and  N_16 
REMARK    5  A    between atoms: CA_17  and  CB_20 
REMARK    6  A    between atoms: CA_17  and  C_18 
REMARK       I    between atoms: C_18  and  N_28 
REMARK    7  A    between atoms: CB_20  and  CG_21 
REMARK    8  A    between atoms: CA_29  and  N_28 
REMARK    9  A    between atoms: CA_29  and  CB_32 
REMARK   10  A    between atoms: CA_29  and  C_30 
REMARK       I    between atoms: C_30  and  N_40 
REMARK   11  A    between atoms: CB_32  and  CG_33 
REMARK   12  A    between atoms: CA_41  and  N_40 
REMARK   13  A    between atoms: CA_41  and  CB_44 
REMARK   14  A    between atoms: CA_41  and  C_42 
REMARK       I    between atoms: C_42  and  N_48 
REMARK   15  A    between atoms: CB_44  and  OG_45 
REMARK   16  A    between atoms: CA_49  and  N_48 
REMARK   17  A    between atoms: CA_49  and  C_50 
REMARK       I    between atoms: C_50  and  N_54 
REMARK   18  A    between atoms: CA_55  and  N_54 
REMARK   19  A    between atoms: CA_55  and  CB_58 
REMARK   20  A    between atoms: CA_55  and  C_56 
REMARK       I    between atoms: C_56  and  N_62 
REMARK   21  A    between atoms: CB_58  and  OG_59 
ROOT
ATOM      1  CA  HIS A   4      33.835  -0.883 -11.853  0.00  0.00     0.225 C 
ENDROOT
BRANCH   1   2
ATOM      2  N   HIS A   4      32.441  -0.505 -11.588  0.00  0.00    -0.262 N 
ATOM      3  HN  HIS A   4      32.119   0.314 -12.085  0.00  0.00     0.189 HD
ATOM      4  C   PHE A   3      31.651  -0.985 -10.613  0.00  0.00     0.206 C 
ATOM      5  O   PHE A   3      31.923  -1.980  -9.944  0.00  0.00    -0.394 OA
BRANCH   4   6
ATOM      6  CA  PHE A   3      30.386  -0.184 -10.293  0.00  0.00     0.223 C 
BRANCH   6   7
ATOM      7  N   PHE A   3      30.503   1.131 -10.917  0.00  0.00    -0.262 N 
ATOM      8  HN  PHE A   3      30.857   1.162 -11.864  0.00  0.00     0.189 HD
ATOM      9  C   ALA A   2      30.293   2.281 -10.264  0.00  0.00     0.204 C 
ATOM     10  O   ALA A   2      29.892   2.330  -9.099  0.00  0.00    -0.394 OA
BRANCH   9  11
ATOM     11  CA  ALA A   2      30.561   3.574 -11.035  0.00  0.00     0.208 C 
ATOM     12  CB  ALA A   2      30.529   4.785 -10.096  0.00  0.00     0.059 C 
BRANCH  11  13
ATOM     13  N   ALA A   2      29.546   3.721 -12.068  0.00  0.00    -0.261 N 
ATOM     14  HN  ALA A   2      28.595   3.799 -11.733  0.00  0.00     0.189 HD
ATOM     15  C   PRO A   1      29.790   3.656 -13.383  0.00  0.00     0.241 C 
ATOM     16  O   PRO A   1      30.918   3.538 -13.861  0.00  0.00    -0.390 OA
BRANCH  15  17
ATOM     17  CA  PRO A   1      28.591   3.746 -14.326  0.00  0.00     0.309 C 
ATOM     18  CB  PRO A   1      28.994   4.234 -15.727  0.00  0.00     0.098 C 
ATOM     19  CG  PRO A   1      28.620   5.716 -15.719  0.00  0.00     0.074 C 
ATOM     20  CD  PRO A   1      27.374   5.697 -14.841  0.00  0.00     0.280 C 
ATOM     21  N   PRO A   1      27.635   4.723 -13.764  0.00  0.00    -0.414 N 
ATOM     22  H1  PRO A   1      26.792   4.285 -13.420  0.00  0.00     0.369 HD
ATOM     23  H2  PRO A   1      28.137   5.168 -12.998  0.00  0.00     0.369 HD
ENDBRANCH  15  17
ENDBRANCH  11  13
ENDBRANCH   9  11
ENDBRANCH   6   7
BRANCH   6  24
ATOM     24  CB  PHE A   3      29.092  -0.873 -10.760  0.00  0.00     0.116 C 
BRANCH  24  25
ATOM     25  CG  PHE A   3      28.547  -0.361 -12.080  0.00  0.00    -0.039 A 
ATOM     26  CD1 PHE A   3      27.447   0.517 -12.111  0.00  0.00    -0.004 A 
ATOM     27  CE1 PHE A   3      26.907   0.926 -13.344  0.00  0.00    -0.009 A 
ATOM     28  CZ  PHE A   3      27.463   0.464 -14.548  0.00  0.00    -0.013 A 
ATOM     29  CE2 PHE A   3      28.570  -0.402 -14.520  0.00  0.00    -0.009 A 
ATOM     30  CD2 PHE A   3      29.113  -0.811 -13.289  0.00  0.00    -0.004 A 
ENDBRANCH  24  25
ENDBRANCH   6  24
ENDBRANCH   4   6
ENDBRANCH   1   2
BRANCH   1  31
ATOM     31  CB  HIS A   4      33.877  -1.905 -13.008  0.00  0.00     0.141 C 
BRANCH  31  32
ATOM     32  CG  HIS A   4      33.604  -3.341 -12.615  0.00  0.00     0.056 A 
ATOM     33  ND1 HIS A   4      32.364  -3.896 -12.393  0.00  0.00    -0.262 N 
ATOM     34  CE1 HIS A   4      32.544  -5.182 -12.046  0.00  0.00     0.202 A 
ATOM     35  HD1 HIS A   4      31.474  -3.428 -12.500  0.00  0.00     0.239 HD
ATOM     36  NE2 HIS A   4      33.850  -5.489 -12.006  0.00  0.00    -0.344 NA
ATOM     37  CD2 HIS A   4      34.528  -4.327 -12.383  0.00  0.00     0.005 A 
ENDBRANCH  31  32
ENDBRANCH   1  31
BRANCH   1  38
ATOM     38  C   HIS A   4      34.781   0.306 -12.101  0.00  0.00     0.206 C 
ATOM     39  O   HIS A   4      35.769   0.170 -12.822  0.00  0.00    -0.394 OA
ATOM     40  N   SER A   5      34.483   1.471 -11.514  0.00  0.00    -0.261 N 
ATOM     41  HN  SER A   5      33.673   1.528 -10.913  0.00  0.00     0.188 HD
BRANCH  40  42
ATOM     42  CA  SER A   5      35.192   2.719 -11.751  0.00  0.00     0.236 C 
BRANCH  42  43
ATOM     43  CB  SER A   5      34.281   3.887 -11.318  0.00  0.00     0.206 C 
BRANCH  43  44
ATOM     44  OG  SER A   5      34.522   4.275  -9.979  0.00  0.00    -0.390 OA
ATOM     45  HG  SER A   5      35.140   3.637  -9.593  0.00  0.00     0.210 HD
ENDBRANCH  43  44
ENDBRANCH  42  43
BRANCH  42  46
ATOM     46  C   SER A   5      36.527   2.701 -10.986  0.00  0.00     0.206 C 
ATOM     47  O   SER A   5      37.471   3.401 -11.357  0.00  0.00    -0.394 OA
ATOM     48  N   ALA A   6      36.613   1.883  -9.929  0.00  0.00    -0.264 N 
ATOM     49  HN  ALA A   6      35.801   1.345  -9.663  0.00  0.00     0.188 HD
BRANCH  48  50
ATOM     50  CA  ALA A   6      37.856   1.521  -9.267  0.00  0.00     0.208 C 
ATOM     51  CB  ALA A   6      37.586   1.139  -7.807  0.00  0.00     0.059 C 
BRANCH  50  52
ATOM     52  C   ALA A   6      38.478   0.391 -10.091  0.00  0.00     0.204 C 
ATOM     53  O   ALA A   6      38.031  -0.752 -10.024  0.00  0.00    -0.394 OA
ATOM     54  N   SER A   7      39.472   0.736 -10.922  0.00  0.00    -0.257 N 
ATOM     55  HN  SER A   7      39.755   1.705 -10.963  0.00  0.00     0.189 HD
BRANCH  54  56
ATOM     56  CA  SER A   7      40.028  -0.171 -11.921  0.00  0.00     0.295 C 
BRANCH  56  57
ATOM     57  CB  SER A   7      39.014  -0.354 -13.068  0.00  0.00     0.212 C 
BRANCH  57  58
ATOM     58  OG  SER A   7      38.711   0.879 -13.702  0.00  0.00    -0.390 OA
ATOM     59  HG  SER A   7      39.498   1.177 -14.179  0.00  0.00     0.210 HD
ENDBRANCH  57  58
ENDBRANCH  56  57
BRANCH  56  60
ATOM     60  C   SER A   7      41.410   0.317 -12.385  0.00  0.00     0.392 C 
ATOM     61  O   SER A   7      41.858  -0.037 -13.471  0.00  0.00    -0.295 OA
ATOM     62  N   NHH A   8      42.118   1.099 -11.570  0.00  0.00    -0.205 N 
ATOM     63  HN1 NHH A   8      41.705   1.368 -10.677  0.00  0.00     0.454 HD
ATOM     64  HN2 NHH A   8      43.027   1.432 -11.851  0.00  0.00     0.454 HD
ENDBRANCH  56  60
ENDBRANCH  54  56
ENDBRANCH  50  52
ENDBRANCH  48  50
ENDBRANCH  42  46
ENDBRANCH  40  42
ENDBRANCH   1  38
TORSDOF 21
ENDMDL
MODEL 5
REMARK VINA RESULT:      -9.7      2.668     10.968
REMARK  21 active torsions:
REMARK  status: ('A' for Active; 'I' for Inactive)
REMARK    1  A    between atoms: CA_2  and  C_3 
REMARK       I    between atoms: C_3  and  N_10 
REMARK    2  A    between atoms: CA_11  and  N_10 
REMARK    3  A    between atoms: CA_11  and  C_12 
REMARK       I    between atoms: C_12  and  N_16 
REMARK    4  A    between atoms: CA_17  and  N_16 
REMARK    5  A    between atoms: CA_17  and  CB_20 
REMARK    6  A    between atoms: CA_17  and  C_18 
REMARK       I    between atoms: C_18  and  N_28 
REMARK    7  A    between atoms: CB_20  and  CG_21 
REMARK    8  A    between atoms: CA_29  and  N_28 
REMARK    9  A    between atoms: CA_29  and  CB_32 
REMARK   10  A    between atoms: CA_29  and  C_30 
REMARK       I    between atoms: C_30  and  N_40 
REMARK   11  A    between atoms: CB_32  and  CG_33 
REMARK   12  A    between atoms: CA_41  and  N_40 
REMARK   13  A    between atoms: CA_41  and  CB_44 
REMARK   14  A    between atoms: CA_41  and  C_42 
REMARK       I    between atoms: C_42  and  N_48 
REMARK   15  A    between atoms: CB_44  and  OG_45 
REMARK   16  A    between atoms: CA_49  and  N_48 
REMARK   17  A    between atoms: CA_49  and  C_50 
REMARK       I    between atoms: C_50  and  N_54 
REMARK   18  A    between atoms: CA_55  and  N_54 
REMARK   19  A    between atoms: CA_55  and  CB_58 
REMARK   20  A    between atoms: CA_55  and  C_56 
REMARK       I    between atoms: C_56  and  N_62 
REMARK   21  A    between atoms: CB_58  and  OG_59 
ROOT
ATOM      1  CA  HIS A   4      32.586  -0.098 -11.817  0.00  0.00     0.225 C 
ENDROOT
BRANCH   1   2
ATOM      2  N   HIS A   4      31.174   0.249 -12.018  0.00  0.00    -0.262 N 
ATOM      3  HN  HIS A   4      30.970   0.723 -12.887  0.00  0.00     0.189 HD
ATOM      4  C   PHE A   3      30.199   0.208 -11.095  0.00  0.00     0.206 C 
ATOM      5  O   PHE A   3      30.316  -0.346 -10.003  0.00  0.00    -0.394 OA
BRANCH   4   6
ATOM      6  CA  PHE A   3      28.909   0.966 -11.420  0.00  0.00     0.223 C 
BRANCH   6   7
ATOM      7  N   PHE A   3      29.229   2.384 -11.558  0.00  0.00    -0.262 N 
ATOM      8  HN  PHE A   3      29.410   2.727 -12.493  0.00  0.00     0.189 HD
ATOM      9  C   ALA A   2      29.418   3.205 -10.517  0.00  0.00     0.204 C 
ATOM     10  O   ALA A   2      29.248   2.858  -9.347  0.00  0.00    -0.394 OA
BRANCH   9  11
ATOM     11  CA  ALA A   2      29.851   4.637 -10.835  0.00  0.00     0.208 C 
ATOM     12  CB  ALA A   2      29.451   5.590  -9.704  0.00  0.00     0.059 C 
BRANCH  11  13
ATOM     13  N   ALA A   2      29.219   5.051 -12.079  0.00  0.00    -0.261 N 
ATOM     14  HN  ALA A   2      28.361   4.570 -12.310  0.00  0.00     0.189 HD
ATOM     15  C   PRO A   1      29.751   5.925 -12.943  0.00  0.00     0.241 C 
ATOM     16  O   PRO A   1      30.804   6.530 -12.738  0.00  0.00    -0.390 OA
BRANCH  15  17
ATOM     17  CA  PRO A   1      28.990   6.181 -14.243  0.00  0.00     0.309 C 
ATOM     18  CB  PRO A   1      28.177   4.954 -14.687  0.00  0.00     0.098 C 
ATOM     19  CG  PRO A   1      29.048   4.310 -15.765  0.00  0.00     0.074 C 
ATOM     20  CD  PRO A   1      29.679   5.543 -16.403  0.00  0.00     0.280 C 
ATOM     21  N   PRO A   1      29.975   6.479 -15.303  0.00  0.00    -0.414 N 
ATOM     22  H1  PRO A   1      29.949   7.447 -15.594  0.00  0.00     0.369 HD
ATOM     23  H2  PRO A   1      30.880   6.264 -14.887  0.00  0.00     0.369 HD
ENDBRANCH  15  17
ENDBRANCH  11  13
ENDBRANCH   9  11
ENDBRANCH   6   7
BRANCH   6  24
ATOM     24  CB  PHE A   3      28.208   0.460 -12.693  0.00  0.00     0.116 C 
BRANCH  24  25
ATOM     25  CG  PHE A   3      26.714   0.725 -12.737  0.00  0.00    -0.039 A 
ATOM     26  CD1 PHE A   3      26.209   1.892 -13.340  0.00  0.00    -0.004 A 
ATOM     27  CE1 PHE A   3      24.828   2.161 -13.309  0.00  0.00    -0.009 A 
ATOM     28  CZ  PHE A   3      23.948   1.265 -12.679  0.00  0.00    -0.013 A 
ATOM     29  CE2 PHE A   3      24.448   0.092 -12.088  0.00  0.00    -0.009 A 
ATOM     30  CD2 PHE A   3      25.827  -0.179 -12.120  0.00  0.00    -0.004 A 
ENDBRANCH  24  25
ENDBRANCH   6  24
ENDBRANCH   4   6
ENDBRANCH   1   2
BRANCH   1  31
ATOM     31  CB  HIS A   4      32.873  -1.469 -12.466  0.00  0.00     0.141 C 
BRANCH  31  32
ATOM     32  CG  HIS A   4      32.041  -2.621 -11.945  0.00  0.00     0.056 A 
ATOM     33  ND1 HIS A   4      31.977  -3.044 -10.636  0.00  0.00    -0.262 N 
ATOM     34  CE1 HIS A   4      31.148  -4.102 -10.586  0.00  0.00     0.202 A 
ATOM     35  HD1 HIS A   4      32.447  -2.619  -9.849  0.00  0.00     0.239 HD
ATOM     36  NE2 HIS A   4      30.684  -4.405 -11.807  0.00  0.00    -0.344 NA
ATOM     37  CD2 HIS A   4      31.235  -3.458 -12.673  0.00  0.00     0.005 A 
ENDBRANCH  31  32
ENDBRANCH   1  31
BRANCH   1  38
ATOM     38  C   HIS A   4      33.580   0.980 -12.286  0.00  0.00     0.206 C 
ATOM     39  O   HIS A   4      34.363   0.741 -13.205  0.00  0.00    -0.394 OA
ATOM     40  N   SER A   5      33.551   2.164 -11.664  0.00  0.00    -0.261 N 
ATOM     41  HN  SER A   5      32.906   2.305 -10.901  0.00  0.00     0.188 HD
BRANCH  40  42
ATOM     42  CA  SER A   5      34.325   3.328 -12.070  0.00  0.00     0.236 C 
BRANCH  42  43
ATOM     43  CB  SER A   5      33.491   4.593 -11.780  0.00  0.00     0.206 C 
BRANCH  43  44
ATOM     44  OG  SER A   5      33.865   5.673 -12.615  0.00  0.00    -0.390 OA
ATOM     45  HG  SER A   5      33.715   5.403 -13.532  0.00  0.00     0.210 HD
ENDBRANCH  43  44
ENDBRANCH  42  43
BRANCH  42  46
ATOM     46  C   SER A   5      35.673   3.329 -11.328  0.00  0.00     0.206 C 
ATOM     47  O   SER A   5      36.346   4.358 -11.255  0.00  0.00    -0.394 OA
ATOM     48  N   ALA A   6      36.077   2.168 -10.796  0.00  0.00    -0.264 N 
ATOM     49  HN  ALA A   6      35.475   1.361 -10.875  0.00  0.00     0.188 HD
BRANCH  48  50
ATOM     50  CA  ALA A   6      37.424   1.907 -10.316  0.00  0.00     0.208 C 
ATOM     51  CB  ALA A   6      37.375   1.104  -9.011  0.00  0.00     0.059 C 
BRANCH  50  52
ATOM     52  C   ALA A   6      38.161   1.190 -11.449  0.00  0.00     0.204 C 
ATOM     53  O   ALA A   6      37.759   1.271 -12.608  0.00  0.00    -0.394 OA
ATOM     54  N   SER A   7      39.285   0.540 -11.113  0.00  0.00    -0.257 N 
ATOM     55  HN  SER A   7      39.584   0.558 -10.149  0.00  0.00     0.189 HD
BRANCH  54  56
ATOM     56  CA  SER A   7      40.211  -0.014 -12.097  0.00  0.00     0.295 C 
BRANCH  56  57
ATOM     57  CB  SER A   7      41.612   0.589 -11.877  0.00  0.00     0.212 C 
BRANCH  57  58
ATOM     58  OG  SER A   7      42.356   0.644 -13.085  0.00  0.00    -0.390 OA
ATOM     59  HG  SER A   7      43.051   1.310 -12.985  0.00  0.00     0.210 HD
ENDBRANCH  57  58
ENDBRANCH  56  57
BRANCH  56  60
ATOM     60  C   SER A   7      40.182  -1.551 -12.060  0.00  0.00     0.392 C 
ATOM     61  O   SER A   7      39.387  -2.136 -11.331  0.00  0.00    -0.295 OA
ATOM     62  N   NHH A   8      41.057  -2.224 -12.806  0.00  0.00    -0.205 N 
ATOM     63  HN1 NHH A   8      41.698  -1.696 -13.397  0.00  0.00     0.454 HD
ATOM     64  HN2 NHH A   8      41.057  -3.233 -12.798  0.00  0.00     0.454 HD
ENDBRANCH  56  60
ENDBRANCH  54  56
ENDBRANCH  50  52
ENDBRANCH  48  50
ENDBRANCH  42  46
ENDBRANCH  40  42
ENDBRANCH   1  38
TORSDOF 21
ENDMDL
MODEL 6
REMARK VINA RESULT:      -9.7      2.445      7.751
REMARK  21 active torsions:
REMARK  status: ('A' for Active; 'I' for Inactive)
REMARK    1  A    between atoms: CA_2  and  C_3 
REMARK       I    between atoms: C_3  and  N_10 
REMARK    2  A    between atoms: CA_11  and  N_10 
REMARK    3  A    between atoms: CA_11  and  C_12 
REMARK       I    between atoms: C_12  and  N_16 
REMARK    4  A    between atoms: CA_17  and  N_16 
REMARK    5  A    between atoms: CA_17  and  CB_20 
REMARK    6  A    between atoms: CA_17  and  C_18 
REMARK       I    between atoms: C_18  and  N_28 
REMARK    7  A    between atoms: CB_20  and  CG_21 
REMARK    8  A    between atoms: CA_29  and  N_28 
REMARK    9  A    between atoms: CA_29  and  CB_32 
REMARK   10  A    between atoms: CA_29  and  C_30 
REMARK       I    between atoms: C_30  and  N_40 
REMARK   11  A    between atoms: CB_32  and  CG_33 
REMARK   12  A    between atoms: CA_41  and  N_40 
REMARK   13  A    between atoms: CA_41  and  CB_44 
REMARK   14  A    between atoms: CA_41  and  C_42 
REMARK       I    between atoms: C_42  and  N_48 
REMARK   15  A    between atoms: CB_44  and  OG_45 
REMARK   16  A    between atoms: CA_49  and  N_48 
REMARK   17  A    between atoms: CA_49  and  C_50 
REMARK       I    between atoms: C_50  and  N_54 
REMARK   18  A    between atoms: CA_55  and  N_54 
REMARK   19  A    between atoms: CA_55  and  CB_58 
REMARK   20  A    between atoms: CA_55  and  C_56 
REMARK       I    between atoms: C_56  and  N_62 
REMARK   21  A    between atoms: CB_58  and  OG_59 
ROOT
ATOM      1  CA  HIS A   4      29.721   1.184 -12.676  0.00  0.00     0.225 C 
ENDROOT
BRANCH   1   2
ATOM      2  N   HIS A   4      31.039   0.546 -12.772  0.00  0.00    -0.262 N 
ATOM      3  HN  HIS A   4      31.076  -0.271 -13.366  0.00  0.00     0.189 HD
ATOM      4  C   PHE A   3      32.108   0.792 -11.995  0.00  0.00     0.206 C 
ATOM      5  O   PHE A   3      32.192   1.757 -11.238  0.00  0.00    -0.394 OA
BRANCH   4   6
ATOM      6  CA  PHE A   3      33.235  -0.244 -12.024  0.00  0.00     0.223 C 
BRANCH   6   7
ATOM      7  N   PHE A   3      34.473   0.431 -12.405  0.00  0.00    -0.262 N 
ATOM      8  HN  PHE A   3      34.502   1.436 -12.297  0.00  0.00     0.189 HD
ATOM      9  C   ALA A   2      35.501  -0.188 -12.998  0.00  0.00     0.204 C 
ATOM     10  O   ALA A   2      35.531  -1.404 -13.195  0.00  0.00    -0.394 OA
BRANCH   9  11
ATOM     11  CA  ALA A   2      36.681   0.686 -13.427  0.00  0.00     0.208 C 
ATOM     12  CB  ALA A   2      36.838   0.678 -14.951  0.00  0.00     0.059 C 
BRANCH  11  13
ATOM     13  N   ALA A   2      37.892   0.175 -12.802  0.00  0.00    -0.261 N 
ATOM     14  HN  ALA A   2      38.028  -0.824 -12.873  0.00  0.00     0.189 HD
ATOM     15  C   PRO A   1      38.741   0.917 -12.080  0.00  0.00     0.241 C 
ATOM     16  O   PRO A   1      38.625   2.134 -11.930  0.00  0.00    -0.390 OA
BRANCH  15  17
ATOM     17  CA  PRO A   1      39.920   0.199 -11.424  0.00  0.00     0.309 C 
ATOM     18  CB  PRO A   1      39.696  -0.021  -9.918  0.00  0.00     0.098 C 
ATOM     19  CG  PRO A   1      40.500   1.101  -9.262  0.00  0.00     0.074 C 
ATOM     20  CD  PRO A   1      41.674   1.220 -10.228  0.00  0.00     0.280 C 
ATOM     21  N   PRO A   1      41.121   1.044 -11.584  0.00  0.00    -0.414 N 
ATOM     22  H1  PRO A   1      41.789   0.648 -12.231  0.00  0.00     0.369 HD
ATOM     23  H2  PRO A   1      40.771   1.931 -11.941  0.00  0.00     0.369 HD
ENDBRANCH  15  17
ENDBRANCH  11  13
ENDBRANCH   9  11
ENDBRANCH   6   7
BRANCH   6  24
ATOM     24  CB  PHE A   3      33.426  -0.976 -10.685  0.00  0.00     0.116 C 
BRANCH  24  25
ATOM     25  CG  PHE A   3      32.598  -2.239 -10.535  0.00  0.00    -0.039 A 
ATOM     26  CD1 PHE A   3      32.865  -3.372 -11.327  0.00  0.00    -0.004 A 
ATOM     27  CE1 PHE A   3      32.043  -4.510 -11.228  0.00  0.00    -0.009 A 
ATOM     28  CZ  PHE A   3      30.958  -4.523 -10.338  0.00  0.00    -0.013 A 
ATOM     29  CE2 PHE A   3      30.697  -3.399  -9.536  0.00  0.00    -0.009 A 
ATOM     30  CD2 PHE A   3      31.517  -2.261  -9.631  0.00  0.00    -0.004 A 
ENDBRANCH  24  25
ENDBRANCH   6  24
ENDBRANCH   4   6
ENDBRANCH   1   2
BRANCH   1  31
ATOM     31  CB  HIS A   4      29.145   0.961 -11.262  0.00  0.00     0.141 C 
BRANCH  31  32
ATOM     32  CG  HIS A   4      27.726   0.437 -11.213  0.00  0.00     0.056 A 
ATOM     33  ND1 HIS A   4      26.581   1.199 -11.287  0.00  0.00    -0.262 N 
ATOM     34  CE1 HIS A   4      25.528   0.369 -11.188  0.00  0.00     0.202 A 
ATOM     35  HD1 HIS A   4      26.539   2.200 -11.419  0.00  0.00     0.239 HD
ATOM     36  NE2 HIS A   4      25.931  -0.900 -11.029  0.00  0.00    -0.344 NA
ATOM     37  CD2 HIS A   4      27.327  -0.866 -11.060  0.00  0.00     0.005 A 
ENDBRANCH  31  32
ENDBRANCH   1  31
BRANCH   1  38
ATOM     38  C   HIS A   4      29.703   2.671 -13.077  0.00  0.00     0.206 C 
ATOM     39  O   HIS A   4      30.233   3.035 -14.126  0.00  0.00    -0.394 OA
ATOM     40  N   SER A   5      29.092   3.529 -12.252  0.00  0.00    -0.261 N 
ATOM     41  HN  SER A   5      28.691   3.186 -11.391  0.00  0.00     0.188 HD
BRANCH  40  42
ATOM     42  CA  SER A   5      28.869   4.938 -12.544  0.00  0.00     0.236 C 
BRANCH  42  43
ATOM     43  CB  SER A   5      27.383   5.259 -12.288  0.00  0.00     0.206 C 
BRANCH  43  44
ATOM     44  OG  SER A   5      26.984   4.897 -10.978  0.00  0.00    -0.390 OA
ATOM     45  HG  SER A   5      27.589   4.211 -10.664  0.00  0.00     0.210 HD
ENDBRANCH  43  44
ENDBRANCH  42  43
BRANCH  42  46
ATOM     46  C   SER A   5      29.813   5.794 -11.682  0.00  0.00     0.206 C 
ATOM     47  O   SER A   5      30.325   6.816 -12.142  0.00  0.00    -0.394 OA
ATOM     48  N   ALA A   6      30.060   5.365 -10.438  0.00  0.00    -0.264 N 
ATOM     49  HN  ALA A   6      29.599   4.528 -10.111  0.00  0.00     0.188 HD
BRANCH  48  50
ATOM     50  CA  ALA A   6      31.126   5.871  -9.589  0.00  0.00     0.208 C 
ATOM     51  CB  ALA A   6      30.755   5.695  -8.112  0.00  0.00     0.059 C 
BRANCH  50  52
ATOM     52  C   ALA A   6      32.400   5.126  -9.993  0.00  0.00     0.204 C 
ATOM     53  O   ALA A   6      32.781   4.146  -9.357  0.00  0.00    -0.394 OA
ATOM     54  N   SER A   7      33.020   5.561 -11.100  0.00  0.00    -0.257 N 
ATOM     55  HN  SER A   7      32.622   6.342 -11.603  0.00  0.00     0.189 HD
BRANCH  54  56
ATOM     56  CA  SER A   7      34.118   4.839 -11.736  0.00  0.00     0.295 C 
BRANCH  56  57
ATOM     57  CB  SER A   7      33.640   4.262 -13.083  0.00  0.00     0.212 C 
BRANCH  57  58
ATOM     58  OG  SER A   7      34.479   3.208 -13.530  0.00  0.00    -0.390 OA
ATOM     59  HG  SER A   7      34.334   3.084 -14.478  0.00  0.00     0.210 HD
ENDBRANCH  57  58
ENDBRANCH  56  57
BRANCH  56  60
ATOM     60  C   SER A   7      35.361   5.737 -11.848  0.00  0.00     0.392 C 
ATOM     61  O   SER A   7      36.454   5.328 -11.470  0.00  0.00    -0.295 OA
ATOM     62  N   NHH A   8      35.216   6.972 -12.329  0.00  0.00    -0.205 N 
ATOM     63  HN1 NHH A   8      34.288   7.268 -12.631  0.00  0.00     0.454 HD
ATOM     64  HN2 NHH A   8      36.016   7.580 -12.411  0.00  0.00     0.454 HD
ENDBRANCH  56  60
ENDBRANCH  54  56
ENDBRANCH  50  52
ENDBRANCH  48  50
ENDBRANCH  42  46
ENDBRANCH  40  42
ENDBRANCH   1  38
TORSDOF 21
ENDMDL
MODEL 7
REMARK VINA RESULT:      -9.6      2.176      5.435
REMARK  21 active torsions:
REMARK  status: ('A' for Active; 'I' for Inactive)
REMARK    1  A    between atoms: CA_2  and  C_3 
REMARK       I    between atoms: C_3  and  N_10 
REMARK    2  A    between atoms: CA_11  and  N_10 
REMARK    3  A    between atoms: CA_11  and  C_12 
REMARK       I    between atoms: C_12  and  N_16 
REMARK    4  A    between atoms: CA_17  and  N_16 
REMARK    5  A    between atoms: CA_17  and  CB_20 
REMARK    6  A    between atoms: CA_17  and  C_18 
REMARK       I    between atoms: C_18  and  N_28 
REMARK    7  A    between atoms: CB_20  and  CG_21 
REMARK    8  A    between atoms: CA_29  and  N_28 
REMARK    9  A    between atoms: CA_29  and  CB_32 
REMARK   10  A    between atoms: CA_29  and  C_30 
REMARK       I    between atoms: C_30  and  N_40 
REMARK   11  A    between atoms: CB_32  and  CG_33 
REMARK   12  A    between atoms: CA_41  and  N_40 
REMARK   13  A    between atoms: CA_41  and  CB_44 
REMARK   14  A    between atoms: CA_41  and  C_42 
REMARK       I    between atoms: C_42  and  N_48 
REMARK   15  A    between atoms: CB_44  and  OG_45 
REMARK   16  A    between atoms: CA_49  and  N_48 
REMARK   17  A    between atoms: CA_49  and  C_50 
REMARK       I    between atoms: C_50  and  N_54 
REMARK   18  A    between atoms: CA_55  and  N_54 
REMARK   19  A    between atoms: CA_55  and  CB_58 
REMARK   20  A    between atoms: CA_55  and  C_56 
REMARK       I    between atoms: C_56  and  N_62 
REMARK   21  A    between atoms: CB_58  and  OG_59 
ROOT
ATOM      1  CA  HIS A   4      33.834   2.114 -12.088  0.00  0.00     0.225 C 
ENDROOT
BRANCH   1   2
ATOM      2  N   HIS A   4      34.503   0.927 -12.635  0.00  0.00    -0.262 N 
ATOM      3  HN  HIS A   4      34.432   0.821 -13.637  0.00  0.00     0.189 HD
ATOM      4  C   PHE A   3      34.985  -0.116 -11.937  0.00  0.00     0.206 C 
ATOM      5  O   PHE A   3      35.131  -0.110 -10.716  0.00  0.00    -0.394 OA
BRANCH   4   6
ATOM      6  CA  PHE A   3      35.289  -1.392 -12.727  0.00  0.00     0.223 C 
BRANCH   6   7
ATOM      7  N   PHE A   3      36.685  -1.349 -13.153  0.00  0.00    -0.262 N 
ATOM      8  HN  PHE A   3      37.350  -1.885 -12.611  0.00  0.00     0.189 HD
ATOM      9  C   ALA A   2      37.137  -0.548 -14.126  0.00  0.00     0.204 C 
ATOM     10  O   ALA A   2      36.399   0.160 -14.813  0.00  0.00    -0.394 OA
BRANCH   9  11
ATOM     11  CA  ALA A   2      38.646  -0.548 -14.377  0.00  0.00     0.208 C 
ATOM     12  CB  ALA A   2      39.043  -1.702 -15.304  0.00  0.00     0.059 C 
BRANCH  11  13
ATOM     13  N   ALA A   2      39.332  -0.680 -13.100  0.00  0.00    -0.261 N 
ATOM     14  HN  ALA A   2      39.132  -1.528 -12.587  0.00  0.00     0.189 HD
ATOM     15  C   PRO A   1      40.098   0.272 -12.552  0.00  0.00     0.241 C 
ATOM     16  O   PRO A   1      40.364   1.337 -13.108  0.00  0.00    -0.390 OA
BRANCH  15  17
ATOM     17  CA  PRO A   1      40.674  -0.003 -11.162  0.00  0.00     0.309 C 
ATOM     18  CB  PRO A   1      39.581  -0.380 -10.149  0.00  0.00     0.098 C 
ATOM     19  CG  PRO A   1      39.336   0.917  -9.377  0.00  0.00     0.074 C 
ATOM     20  CD  PRO A   1      40.738   1.515  -9.362  0.00  0.00     0.280 C 
ATOM     21  N   PRO A   1      41.330   1.231 -10.683  0.00  0.00    -0.414 N 
ATOM     22  H1  PRO A   1      42.336   1.146 -10.652  0.00  0.00     0.369 HD
ATOM     23  H2  PRO A   1      41.060   1.948 -11.354  0.00  0.00     0.369 HD
ENDBRANCH  15  17
ENDBRANCH  11  13
ENDBRANCH   9  11
ENDBRANCH   6   7
BRANCH   6  24
ATOM     24  CB  PHE A   3      35.023  -2.681 -11.931  0.00  0.00     0.116 C 
BRANCH  24  25
ATOM     25  CG  PHE A   3      33.616  -3.232 -12.077  0.00  0.00    -0.039 A 
ATOM     26  CD1 PHE A   3      33.318  -4.553 -11.694  0.00  0.00    -0.004 A 
ATOM     27  CE1 PHE A   3      32.028  -5.074 -11.904  0.00  0.00    -0.009 A 
ATOM     28  CZ  PHE A   3      31.032  -4.278 -12.492  0.00  0.00    -0.013 A 
ATOM     29  CE2 PHE A   3      31.322  -2.954 -12.863  0.00  0.00    -0.009 A 
ATOM     30  CD2 PHE A   3      32.611  -2.430 -12.653  0.00  0.00    -0.004 A 
ENDBRANCH  24  25
ENDBRANCH   6  24
ENDBRANCH   4   6
ENDBRANCH   1   2
BRANCH   1  31
ATOM     31  CB  HIS A   4      34.056   3.310 -13.037  0.00  0.00     0.141 C 
BRANCH  31  32
ATOM     32  CG  HIS A   4      34.489   4.597 -12.371  0.00  0.00     0.056 A 
ATOM     33  ND1 HIS A   4      33.774   5.774 -12.347  0.00  0.00    -0.262 N 
ATOM     34  CE1 HIS A   4      34.502   6.685 -11.677  0.00  0.00     0.202 A 
ATOM     35  HD1 HIS A   4      32.854   5.921 -12.739  0.00  0.00     0.239 HD
ATOM     36  NE2 HIS A   4      35.674   6.164 -11.281  0.00  0.00    -0.344 NA
ATOM     37  CD2 HIS A   4      35.664   4.833 -11.705  0.00  0.00     0.005 A 
ENDBRANCH  31  32
ENDBRANCH   1  31
BRANCH   1  38
ATOM     38  C   HIS A   4      32.345   1.910 -11.756  0.00  0.00     0.206 C 
ATOM     39  O   HIS A   4      32.015   1.296 -10.742  0.00  0.00    -0.394 OA
ATOM     40  N   SER A   5      31.444   2.425 -12.601  0.00  0.00    -0.261 N 
ATOM     41  HN  SER A   5      31.763   2.902 -13.432  0.00  0.00     0.188 HD
BRANCH  40  42
ATOM     42  CA  SER A   5      30.008   2.439 -12.368  0.00  0.00     0.236 C 
BRANCH  42  43
ATOM     43  CB  SER A   5      29.381   3.534 -13.255  0.00  0.00     0.206 C 
BRANCH  43  44
ATOM     44  OG  SER A   5      29.640   3.311 -14.629  0.00  0.00    -0.390 OA
ATOM     45  HG  SER A   5      29.310   4.077 -15.120  0.00  0.00     0.210 HD
ENDBRANCH  43  44
ENDBRANCH  42  43
BRANCH  42  46
ATOM     46  C   SER A   5      29.430   1.043 -12.660  0.00  0.00     0.206 C 
ATOM     47  O   SER A   5      29.404   0.605 -13.811  0.00  0.00    -0.394 OA
ATOM     48  N   ALA A   6      28.945   0.354 -11.619  0.00  0.00    -0.264 N 
ATOM     49  HN  ALA A   6      29.008   0.758 -10.696  0.00  0.00     0.188 HD
BRANCH  48  50
ATOM     50  CA  ALA A   6      28.116  -0.835 -11.733  0.00  0.00     0.208 C 
ATOM     51  CB  ALA A   6      28.677  -1.958 -10.853  0.00  0.00     0.059 C 
BRANCH  50  52
ATOM     52  C   ALA A   6      26.694  -0.414 -11.356  0.00  0.00     0.204 C 
ATOM     53  O   ALA A   6      25.995  -1.134 -10.644  0.00  0.00    -0.394 OA
ATOM     54  N   SER A   7      26.294   0.791 -11.785  0.00  0.00    -0.257 N 
ATOM     55  HN  SER A   7      26.939   1.352 -12.324  0.00  0.00     0.189 HD
BRANCH  54  56
ATOM     56  CA  SER A   7      25.056   1.427 -11.342  0.00  0.00     0.295 C 
BRANCH  56  57
ATOM     57  CB  SER A   7      25.349   2.880 -10.920  0.00  0.00     0.212 C 
BRANCH  57  58
ATOM     58  OG  SER A   7      25.253   3.775 -12.017  0.00  0.00    -0.390 OA
ATOM     59  HG  SER A   7      26.136   4.124 -12.204  0.00  0.00     0.210 HD
ENDBRANCH  57  58
ENDBRANCH  56  57
BRANCH  56  60
ATOM     60  C   SER A   7      23.968   1.298 -12.420  0.00  0.00     0.392 C 
ATOM     61  O   SER A   7      22.872   1.827 -12.257  0.00  0.00    -0.295 OA
ATOM     62  N   NHH A   8      24.229   0.577 -13.510  0.00  0.00    -0.205 N 
ATOM     63  HN1 NHH A   8      25.154   0.158 -13.602  0.00  0.00     0.454 HD
ATOM     64  HN2 NHH A   8      23.531   0.478 -14.230  0.00  0.00     0.454 HD
ENDBRANCH  56  60
ENDBRANCH  54  56
ENDBRANCH  50  52
ENDBRANCH  48  50
ENDBRANCH  42  46
ENDBRANCH  40  42
ENDBRANCH   1  38
TORSDOF 21
ENDMDL
MODEL 8
REMARK VINA RESULT:      -9.6      2.482     10.303
REMARK  21 active torsions:
REMARK  status: ('A' for Active; 'I' for Inactive)
REMARK    1  A    between atoms: CA_2  and  C_3 
REMARK       I    between atoms: C_3  and  N_10 
REMARK    2  A    between atoms: CA_11  and  N_10 
REMARK    3  A    between atoms: CA_11  and  C_12 
REMARK       I    between atoms: C_12  and  N_16 
REMARK    4  A    between atoms: CA_17  and  N_16 
REMARK    5  A    between atoms: CA_17  and  CB_20 
REMARK    6  A    between atoms: CA_17  and  C_18 
REMARK       I    between atoms: C_18  and  N_28 
REMARK    7  A    between atoms: CB_20  and  CG_21 
REMARK    8  A    between atoms: CA_29  and  N_28 
REMARK    9  A    between atoms: CA_29  and  CB_32 
REMARK   10  A    between atoms: CA_29  and  C_30 
REMARK       I    between atoms: C_30  and  N_40 
REMARK   11  A    between atoms: CB_32  and  CG_33 
REMARK   12  A    between atoms: CA_41  and  N_40 
REMARK   13  A    between atoms: CA_41  and  CB_44 
REMARK   14  A    between atoms: CA_41  and  C_42 
REMARK       I    between atoms: C_42  and  N_48 
REMARK   15  A    between atoms: CB_44  and  OG_45 
REMARK   16  A    between atoms: CA_49  and  N_48 
REMARK   17  A    between atoms: CA_49  and  C_50 
REMARK       I    between atoms: C_50  and  N_54 
REMARK   18  A    between atoms: CA_55  and  N_54 
REMARK   19  A    between atoms: CA_55  and  CB_58 
REMARK   20  A    between atoms: CA_55  and  C_56 
REMARK       I    between atoms: C_56  and  N_62 
REMARK   21  A    between atoms: CB_58  and  OG_59 
ROOT
ATOM      1  CA  HIS A   4      32.454   1.518 -12.093  0.00  0.00     0.225 C 
ENDROOT
BRANCH   1   2
ATOM      2  N   HIS A   4      31.188   0.914 -11.661  0.00  0.00    -0.262 N 
ATOM      3  HN  HIS A   4      31.241   0.378 -10.807  0.00  0.00     0.189 HD
ATOM      4  C   PHE A   3      30.060   0.812 -12.384  0.00  0.00     0.206 C 
ATOM      5  O   PHE A   3      29.867   1.420 -13.436  0.00  0.00    -0.394 OA
BRANCH   4   6
ATOM      6  CA  PHE A   3      29.006  -0.178 -11.882  0.00  0.00     0.223 C 
BRANCH   6   7
ATOM      7  N   PHE A   3      27.688   0.428 -12.044  0.00  0.00    -0.262 N 
ATOM      8  HN  PHE A   3      27.636   1.279 -12.589  0.00  0.00     0.189 HD
ATOM      9  C   ALA A   2      26.591  -0.005 -11.410  0.00  0.00     0.204 C 
ATOM     10  O   ALA A   2      26.577  -1.013 -10.702  0.00  0.00    -0.394 OA
BRANCH   9  11
ATOM     11  CA  ALA A   2      25.311   0.808 -11.607  0.00  0.00     0.208 C 
ATOM     12  CB  ALA A   2      24.214  -0.051 -12.245  0.00  0.00     0.059 C 
BRANCH  11  13
ATOM     13  N   ALA A   2      25.609   1.947 -12.464  0.00  0.00    -0.261 N 
ATOM     14  HN  ALA A   2      25.928   1.717 -13.395  0.00  0.00     0.189 HD
ATOM     15  C   PRO A   1      25.581   3.224 -12.060  0.00  0.00     0.241 C 
ATOM     16  O   PRO A   1      25.226   3.575 -10.935  0.00  0.00    -0.390 OA
BRANCH  15  17
ATOM     17  CA  PRO A   1      26.005   4.290 -13.070  0.00  0.00     0.309 C 
ATOM     18  CB  PRO A   1      26.009   5.699 -12.455  0.00  0.00     0.098 C 
ATOM     19  CG  PRO A   1      24.692   6.309 -12.932  0.00  0.00     0.074 C 
ATOM     20  CD  PRO A   1      24.562   5.676 -14.313  0.00  0.00     0.280 C 
ATOM     21  N   PRO A   1      25.032   4.284 -14.182  0.00  0.00    -0.414 N 
ATOM     22  H1  PRO A   1      25.427   3.922 -15.039  0.00  0.00     0.369 HD
ATOM     23  H2  PRO A   1      24.275   3.682 -13.864  0.00  0.00     0.369 HD
ENDBRANCH  15  17
ENDBRANCH  11  13
ENDBRANCH   9  11
ENDBRANCH   6   7
BRANCH   6  24
ATOM     24  CB  PHE A   3      29.051  -1.536 -12.604  0.00  0.00     0.116 C 
BRANCH  24  25
ATOM     25  CG  PHE A   3      29.729  -2.644 -11.819  0.00  0.00    -0.039 A 
ATOM     26  CD1 PHE A   3      30.010  -2.486 -10.449  0.00  0.00    -0.004 A 
ATOM     27  CE1 PHE A   3      30.704  -3.492  -9.751  0.00  0.00    -0.009 A 
ATOM     28  CZ  PHE A   3      31.117  -4.657 -10.416  0.00  0.00    -0.013 A 
ATOM     29  CE2 PHE A   3      30.827  -4.824 -11.782  0.00  0.00    -0.009 A 
ATOM     30  CD2 PHE A   3      30.131  -3.822 -12.481  0.00  0.00    -0.004 A 
ENDBRANCH  24  25
ENDBRANCH   6  24
ENDBRANCH   4   6
ENDBRANCH   1   2
BRANCH   1  31
ATOM     31  CB  HIS A   4      32.628   2.889 -11.405  0.00  0.00     0.141 C 
BRANCH  31  32
ATOM     32  CG  HIS A   4      31.966   4.056 -12.105  0.00  0.00     0.056 A 
ATOM     33  ND1 HIS A   4      31.283   3.999 -13.300  0.00  0.00    -0.262 N 
ATOM     34  CE1 HIS A   4      30.865   5.243 -13.595  0.00  0.00     0.202 A 
ATOM     35  HD1 HIS A   4      31.104   3.167 -13.845  0.00  0.00     0.239 HD
ATOM     36  NE2 HIS A   4      31.264   6.117 -12.658  0.00  0.00    -0.344 NA
ATOM     37  CD2 HIS A   4      31.950   5.366 -11.701  0.00  0.00     0.005 A 
ENDBRANCH  31  32
ENDBRANCH   1  31
BRANCH   1  38
ATOM     38  C   HIS A   4      33.688   0.618 -11.903  0.00  0.00     0.206 C 
ATOM     39  O   HIS A   4      34.700   1.062 -11.361  0.00  0.00    -0.394 OA
ATOM     40  N   SER A   5      33.609  -0.645 -12.339  0.00  0.00    -0.261 N 
ATOM     41  HN  SER A   5      32.766  -0.957 -12.796  0.00  0.00     0.188 HD
BRANCH  40  42
ATOM     42  CA  SER A   5      34.630  -1.659 -12.117  0.00  0.00     0.236 C 
BRANCH  42  43
ATOM     43  CB  SER A   5      33.962  -3.047 -12.198  0.00  0.00     0.206 C 
BRANCH  43  44
ATOM     44  OG  SER A   5      34.822  -4.013 -12.774  0.00  0.00    -0.390 OA
ATOM     45  HG  SER A   5      34.562  -4.126 -13.699  0.00  0.00     0.210 HD
ENDBRANCH  43  44
ENDBRANCH  42  43
BRANCH  42  46
ATOM     46  C   SER A   5      35.755  -1.487 -13.152  0.00  0.00     0.206 C 
ATOM     47  O   SER A   5      35.588  -1.835 -14.321  0.00  0.00    -0.394 OA
ATOM     48  N   ALA A   6      36.910  -0.968 -12.716  0.00  0.00    -0.264 N 
ATOM     49  HN  ALA A   6      36.983  -0.686 -11.749  0.00  0.00     0.188 HD
BRANCH  48  50
ATOM     50  CA  ALA A   6      38.157  -0.993 -13.462  0.00  0.00     0.208 C 
ATOM     51  CB  ALA A   6      38.206   0.176 -14.452  0.00  0.00     0.059 C 
BRANCH  50  52
ATOM     52  C   ALA A   6      39.286  -0.969 -12.429  0.00  0.00     0.204 C 
ATOM     53  O   ALA A   6      39.871  -2.004 -12.115  0.00  0.00    -0.394 OA
ATOM     54  N   SER A   7      39.633   0.235 -11.952  0.00  0.00    -0.257 N 
ATOM     55  HN  SER A   7      39.143   1.050 -12.292  0.00  0.00     0.189 HD
BRANCH  54  56
ATOM     56  CA  SER A   7      40.817   0.456 -11.126  0.00  0.00     0.295 C 
BRANCH  56  57
ATOM     57  CB  SER A   7      41.794   1.388 -11.870  0.00  0.00     0.212 C 
BRANCH  57  58
ATOM     58  OG  SER A   7      42.417   0.731 -12.963  0.00  0.00    -0.390 OA
ATOM     59  HG  SER A   7      42.231  -0.217 -12.895  0.00  0.00     0.210 HD
ENDBRANCH  57  58
ENDBRANCH  56  57
BRANCH  56  60
ATOM     60  C   SER A   7      40.416   0.960  -9.730  0.00  0.00     0.392 C 
ATOM     61  O   SER A   7      41.209   0.890  -8.797  0.00  0.00    -0.295 OA
ATOM     62  N   NHH A   8      39.184   1.439  -9.554  0.00  0.00    -0.205 N 
ATOM     63  HN1 NHH A   8      38.560   1.479 -10.359  0.00  0.00     0.454 HD
ATOM     64  HN2 NHH A   8      38.898   1.776  -8.647  0.00  0.00     0.454 HD
ENDBRANCH  56  60
ENDBRANCH  54  56
ENDBRANCH  50  52
ENDBRANCH  48  50
ENDBRANCH  42  46
ENDBRANCH  40  42
ENDBRANCH   1  38
TORSDOF 21
ENDMDL
MODEL 9
REMARK VINA RESULT:      -9.5      2.407     11.241
REMARK  21 active torsions:
REMARK  status: ('A' for Active; 'I' for Inactive)
REMARK    1  A    between atoms: CA_2  and  C_3 
REMARK       I    between atoms: C_3  and  N_10 
REMARK    2  A    between atoms: CA_11  and  N_10 
REMARK    3  A    between atoms: CA_11  and  C_12 
REMARK       I    between atoms: C_12  and  N_16 
REMARK    4  A    between atoms: CA_17  and  N_16 
REMARK    5  A    between atoms: CA_17  and  CB_20 
REMARK    6  A    between atoms: CA_17  and  C_18 
REMARK       I    between atoms: C_18  and  N_28 
REMARK    7  A    between atoms: CB_20  and  CG_21 
REMARK    8  A    between atoms: CA_29  and  N_28 
REMARK    9  A    between atoms: CA_29  and  CB_32 
REMARK   10  A    between atoms: CA_29  and  C_30 
REMARK       I    between atoms: C_30  and  N_40 
REMARK   11  A    between atoms: CB_32  and  CG_33 
REMARK   12  A    between atoms: CA_41  and  N_40 
REMARK   13  A    between atoms: CA_41  and  CB_44 
REMARK   14  A    between atoms: CA_41  and  C_42 
REMARK       I    between atoms: C_42  and  N_48 
REMARK   15  A    between atoms: CB_44  and  OG_45 
REMARK   16  A    between atoms: CA_49  and  N_48 
REMARK   17  A    between atoms: CA_49  and  C_50 
REMARK       I    between atoms: C_50  and  N_54 
REMARK   18  A    between atoms: CA_55  and  N_54 
REMARK   19  A    between atoms: CA_55  and  CB_58 
REMARK   20  A    between atoms: CA_55  and  C_56 
REMARK       I    between atoms: C_56  and  N_62 
REMARK   21  A    between atoms: CB_58  and  OG_59 
ROOT
ATOM      1  CA  HIS A   4      32.471  -0.139 -11.701  0.00  0.00     0.225 C 
ENDROOT
BRANCH   1   2
ATOM      2  N   HIS A   4      31.180   0.375 -12.173  0.00  0.00    -0.262 N 
ATOM      3  HN  HIS A   4      31.158   0.648 -13.146  0.00  0.00     0.189 HD
ATOM      4  C   PHE A   3      30.128   0.723 -11.412  0.00  0.00     0.206 C 
ATOM      5  O   PHE A   3      30.028   0.442 -10.219  0.00  0.00    -0.394 OA
BRANCH   4   6
ATOM      6  CA  PHE A   3      29.048   1.579 -12.078  0.00  0.00     0.223 C 
BRANCH   6   7
ATOM      7  N   PHE A   3      29.682   2.769 -12.638  0.00  0.00    -0.262 N 
ATOM      8  HN  PHE A   3      30.242   2.645 -13.471  0.00  0.00     0.189 HD
ATOM      9  C   ALA A   2      29.663   3.967 -12.040  0.00  0.00     0.204 C 
ATOM     10  O   ALA A   2      29.031   4.194 -11.007  0.00  0.00    -0.394 OA
BRANCH   9  11
ATOM     11  CA  ALA A   2      30.466   5.085 -12.706  0.00  0.00     0.208 C 
ATOM     12  CB  ALA A   2      30.552   4.865 -14.221  0.00  0.00     0.059 C 
BRANCH  11  13
ATOM     13  N   ALA A   2      31.804   5.107 -12.132  0.00  0.00    -0.261 N 
ATOM     14  HN  ALA A   2      32.464   4.465 -12.550  0.00  0.00     0.189 HD
ATOM     15  C   PRO A   1      32.154   5.827 -11.059  0.00  0.00     0.241 C 
ATOM     16  O   PRO A   1      31.396   6.609 -10.486  0.00  0.00    -0.390 OA
BRANCH  15  17
ATOM     17  CA  PRO A   1      33.582   5.664 -10.539  0.00  0.00     0.309 C 
ATOM     18  CB  PRO A   1      34.465   6.873 -10.887  0.00  0.00     0.098 C 
ATOM     19  CG  PRO A   1      35.258   6.408 -12.107  0.00  0.00     0.074 C 
ATOM     20  CD  PRO A   1      35.438   4.928 -11.788  0.00  0.00     0.280 C 
ATOM     21  N   PRO A   1      34.174   4.472 -11.182  0.00  0.00    -0.414 N 
ATOM     22  H1  PRO A   1      34.303   3.708 -10.534  0.00  0.00     0.369 HD
ATOM     23  H2  PRO A   1      33.508   4.208 -11.906  0.00  0.00     0.369 HD
ENDBRANCH  15  17
ENDBRANCH  11  13
ENDBRANCH   9  11
ENDBRANCH   6   7
BRANCH   6  24
ATOM     24  CB  PHE A   3      28.270   0.833 -13.177  0.00  0.00     0.116 C 
BRANCH  24  25
ATOM     25  CG  PHE A   3      26.824   0.530 -12.828  0.00  0.00    -0.039 A 
ATOM     26  CD1 PHE A   3      25.772   1.078 -13.586  0.00  0.00    -0.004 A 
ATOM     27  CE1 PHE A   3      24.436   0.848 -13.208  0.00  0.00    -0.009 A 
ATOM     28  CZ  PHE A   3      24.147   0.069 -12.076  0.00  0.00    -0.013 A 
ATOM     29  CE2 PHE A   3      25.195  -0.490 -11.325  0.00  0.00    -0.009 A 
ATOM     30  CD2 PHE A   3      26.530  -0.264 -11.702  0.00  0.00    -0.004 A 
ENDBRANCH  24  25
ENDBRANCH   6  24
ENDBRANCH   4   6
ENDBRANCH   1   2
BRANCH   1  31
ATOM     31  CB  HIS A   4      32.540  -1.660 -11.956  0.00  0.00     0.141 C 
BRANCH  31  32
ATOM     32  CG  HIS A   4      31.841  -2.523 -10.928  0.00  0.00     0.056 A 
ATOM     33  ND1 HIS A   4      31.463  -2.127  -9.664  0.00  0.00    -0.262 N 
ATOM     34  CE1 HIS A   4      30.893  -3.182  -9.055  0.00  0.00     0.202 A 
ATOM     35  HD1 HIS A   4      31.569  -1.201  -9.273  0.00  0.00     0.239 HD
ATOM     36  NE2 HIS A   4      30.903  -4.259  -9.856  0.00  0.00    -0.344 NA
ATOM     37  CD2 HIS A   4      31.489  -3.842 -11.053  0.00  0.00     0.005 A 
ENDBRANCH  31  32
ENDBRANCH   1  31
BRANCH   1  38
ATOM     38  C   HIS A   4      33.697   0.596 -12.273  0.00  0.00     0.206 C 
ATOM     39  O   HIS A   4      33.567   1.705 -12.791  0.00  0.00    -0.394 OA
ATOM     40  N   SER A   5      34.886  -0.010 -12.177  0.00  0.00    -0.261 N 
ATOM     41  HN  SER A   5      34.939  -0.929 -11.763  0.00  0.00     0.188 HD
BRANCH  40  42
ATOM     42  CA  SER A   5      36.155   0.601 -12.543  0.00  0.00     0.236 C 
BRANCH  42  43
ATOM     43  CB  SER A   5      36.648   1.449 -11.352  0.00  0.00     0.206 C 
BRANCH  43  44
ATOM     44  OG  SER A   5      37.789   2.217 -11.689  0.00  0.00    -0.390 OA
ATOM     45  HG  SER A   5      37.560   2.770 -12.449  0.00  0.00     0.210 HD
ENDBRANCH  43  44
ENDBRANCH  42  43
BRANCH  42  46
ATOM     46  C   SER A   5      37.157  -0.498 -12.936  0.00  0.00     0.206 C 
ATOM     47  O   SER A   5      36.794  -1.672 -13.027  0.00  0.00    -0.394 OA
ATOM     48  N   ALA A   6      38.425  -0.121 -13.148  0.00  0.00    -0.264 N 
ATOM     49  HN  ALA A   6      38.659   0.858 -13.075  0.00  0.00     0.188 HD
BRANCH  48  50
ATOM     50  CA  ALA A   6      39.551  -1.035 -13.245  0.00  0.00     0.208 C 
ATOM     51  CB  ALA A   6      40.013  -1.153 -14.702  0.00  0.00     0.059 C 
BRANCH  50  52
ATOM     52  C   ALA A   6      40.630  -0.502 -12.301  0.00  0.00     0.204 C 
ATOM     53  O   ALA A   6      41.772  -0.958 -12.333  0.00  0.00    -0.394 OA
ATOM     54  N   SER A   7      40.277   0.518 -11.505  0.00  0.00    -0.257 N 
ATOM     55  HN  SER A   7      39.335   0.878 -11.568  0.00  0.00     0.189 HD
BRANCH  54  56
ATOM     56  CA  SER A   7      41.235   1.274 -10.704  0.00  0.00     0.295 C 
BRANCH  56  57
ATOM     57  CB  SER A   7      41.742   2.482 -11.516  0.00  0.00     0.212 C 
BRANCH  57  58
ATOM     58  OG  SER A   7      40.670   3.270 -12.009  0.00  0.00    -0.390 OA
ATOM     59  HG  SER A   7      39.888   3.096 -11.466  0.00  0.00     0.210 HD
ENDBRANCH  57  58
ENDBRANCH  56  57
BRANCH  56  60
ATOM     60  C   SER A   7      40.623   1.650  -9.344  0.00  0.00     0.392 C 
ATOM     61  O   SER A   7      39.527   2.201  -9.291  0.00  0.00    -0.295 OA
ATOM     62  N   NHH A   8      41.321   1.397  -8.237  0.00  0.00    -0.205 N 
ATOM     63  HN1 NHH A   8      42.226   0.938  -8.330  0.00  0.00     0.454 HD
ATOM     64  HN2 NHH A   8      40.941   1.635  -7.334  0.00  0.00     0.454 HD
ENDBRANCH  56  60
ENDBRANCH  54  56
ENDBRANCH  50  52
ENDBRANCH  48  50
ENDBRANCH  42  46
ENDBRANCH  40  42
ENDBRANCH   1  38
TORSDOF 21
ENDMDL
