MODEL 1
REMARK VINA RESULT:     -10.5      0.000      0.000
REMARK  24 active torsions:
REMARK  status: ('A' for Active; 'I' for Inactive)
REMARK    1  A    between atoms: CA_7  and  N_1 
REMARK       I    between atoms: C_3  and  N_1 
REMARK    2  A    between atoms: CA_2  and  N_6 
REMARK    3  A    between atoms: CA_2  and  C_3 
REMARK    4  A    between atoms: CA_7  and  C_11 
REMARK       I    between atoms: C_11  and  N_15 
REMARK    5  A    between atoms: CA_16  and  N_15 
REMARK    6  A    between atoms: CA_16  and  CB_19 
REMARK    7  A    between atoms: CA_16  and  C_17 
REMARK       I    between atoms: C_17  and  N_27 
REMARK    8  A    between atoms: CB_19  and  CG_20 
REMARK    9  A    between atoms: CA_28  and  N_27 
REMARK   10  A    between atoms: CA_28  and  CB_31 
REMARK   11  A    between atoms: CA_28  and  C_29 
REMARK       I    between atoms: C_29  and  N_39 
REMARK   12  A    between atoms: CB_31  and  CG_32 
REMARK   13  A    between atoms: CA_40  and  N_39 
REMARK   14  A    between atoms: CA_40  and  CB_43 
REMARK   15  A    between atoms: CA_40  and  C_41 
REMARK       I    between atoms: C_41  and  N_47 
REMARK   16  A    between atoms: CB_43  and  OG_44 
REMARK   17  A    between atoms: CA_48  and  N_47 
REMARK   18  A    between atoms: CA_48  and  CB_51 
REMARK   19  A    between atoms: CA_48  and  C_49 
REMARK       I    between atoms: C_49  and  N_63 
REMARK   20  A    between atoms: CB_51  and  CG_52 
REMARK   21  A    between atoms: CA_64  and  N_63 
REMARK   22  A    between atoms: CA_64  and  CB_67 
REMARK   23  A    between atoms: CA_64  and  C_65 
REMARK       I    between atoms: C_65  and  N_71 
REMARK   24  A    between atoms: CB_67  and  OG_68 
ROOT
ATOM      1  C   HIS A   4      33.774   3.049 -12.078  0.00  0.00     0.569 C 
ATOM      2  O   HIS A   4      33.341   3.576 -13.102  0.00  0.00    -0.570 OA
ATOM      3  N   SER A   5      33.138   2.001 -11.462  0.00  0.00    -0.730 N 
ATOM      4  HN  SER A   5      33.443   1.681 -10.541  0.00  0.00     0.370 HD
ENDROOT
BRANCH   1   5
ATOM      5  CA  HIS A   4      35.061   3.521 -11.383  0.00  0.00     0.361 C 
BRANCH   5   6
ATOM      6  N   HIS A   4      36.093   2.518 -11.639  0.00  0.00    -0.730 N 
ATOM      7  HN  HIS A   4      36.155   2.194 -12.604  0.00  0.00     0.370 HD
ATOM      8  C   PHE A   3      36.687   1.783 -10.644  0.00  0.00     0.569 C 
ATOM      9  O   PHE A   3      36.558   2.039  -9.444  0.00  0.00    -0.570 OA
BRANCH   8  10
ATOM     10  CA  PHE A   3      37.528   0.584 -11.130  0.00  0.00     0.361 C 
BRANCH  10  11
ATOM     11  N   PHE A   3      36.675  -0.179 -12.048  0.00  0.00    -0.730 N 
ATOM     12  HN  PHE A   3      36.215   0.355 -12.779  0.00  0.00     0.370 HD
ATOM     13  C   ALA A   2      36.533  -1.538 -11.964  0.00  0.00     0.569 C 
ATOM     14  O   ALA A   2      37.115  -2.226 -11.123  0.00  0.00    -0.570 OA
BRANCH  13  15
ATOM     15  CA  ALA A   2      35.598  -2.178 -13.007  0.00  0.00     0.361 C 
ATOM     16  CB  ALA A   2      35.129  -1.155 -14.033  0.00  0.00     0.000 C 
BRANCH  15  17
ATOM     17  N   ALA A   2      34.464  -2.739 -12.265  0.00  0.00    -0.730 N 
ATOM     18  HN  ALA A   2      34.012  -2.079 -11.632  0.00  0.00     0.370 HD
ATOM     19  C   ALA A   1      34.167  -4.070 -12.260  0.00  0.00     0.569 C 
ATOM     20  O   ALA A   1      34.767  -4.910 -12.934  0.00  0.00    -0.570 OA
BRANCH  19  21
ATOM     21  CA  ALA A   1      32.985  -4.519 -11.386  0.00  0.00     0.564 C 
ATOM     22  CB  ALA A   1      31.869  -5.160 -12.193  0.00  0.00     0.000 C 
BRANCH  21  23
ATOM     23  N   AMN A   0      32.421  -3.314 -10.682  0.00  0.00    -0.853 N 
ATOM     24  HN2 AMN A   0      33.091  -2.547 -10.562  0.00  0.00     0.450 HD
ATOM     25  HN1 AMN A   0      32.038  -3.587  -9.766  0.00  0.00     0.450 HD
ATOM     26  HN3 AMN A   0      31.603  -2.973 -11.210  0.00  0.00     0.450 HD
ENDBRANCH  21  23
ENDBRANCH  19  21
ENDBRANCH  15  17
ENDBRANCH  13  15
ENDBRANCH  10  11
BRANCH  10  27
ATOM     27  CB  PHE A   3      38.808   1.065 -11.837  0.00  0.00     0.143 C 
BRANCH  27  28
ATOM     28  CG  PHE A   3      39.542  -0.023 -12.583  0.00  0.00    -0.143 A 
ATOM     29  CD1 PHE A   3      39.476  -0.094 -13.982  0.00  0.00     0.000 A 
ATOM     30  CE1 PHE A   3      40.198  -1.065 -14.676  0.00  0.00     0.000 A 
ATOM     31  CZ  PHE A   3      40.991  -1.973 -13.978  0.00  0.00     0.000 A 
ATOM     32  CE2 PHE A   3      41.053  -1.920 -12.587  0.00  0.00     0.000 A 
ATOM     33  CD2 PHE A   3      40.329  -0.952 -11.890  0.00  0.00     0.000 A 
ENDBRANCH  27  28
ENDBRANCH  10  27
ENDBRANCH   8  10
ENDBRANCH   5   6
BRANCH   5  34
ATOM     34  CB  HIS A   4      35.444   4.923 -11.895  0.00  0.00     0.180 C 
BRANCH  34  35
ATOM     35  CG  HIS A   4      34.633   5.990 -11.243  0.00  0.00    -0.332 A 
ATOM     36  ND1 HIS A   4      34.352   7.186 -11.859  0.00  0.00     0.033 N 
ATOM     37  CE1 HIS A   4      33.606   7.930 -10.992  0.00  0.00     0.187 A 
ATOM     38  HD1 HIS A   4      34.683   7.473 -12.777  0.00  0.00     0.270 HD
ATOM     39  NE2 HIS A   4      33.391   7.287  -9.869  0.00  0.00    -0.565 NA
ATOM     40  CD2 HIS A   4      34.025   6.079 -10.010  0.00  0.00     0.227 A 
ENDBRANCH  34  35
ENDBRANCH   5  34
ENDBRANCH   1   5
BRANCH   3  41
ATOM     41  CA  SER A   5      31.816   1.538 -11.887  0.00  0.00     0.361 C 
BRANCH  41  42
ATOM     42  CB  SER A   5      31.695   0.011 -11.837  0.00  0.00     0.280 C 
BRANCH  42  43
ATOM     43  OG  SER A   5      32.820  -0.587 -11.191  0.00  0.00    -0.680 OA
ATOM     44  HG  SER A   5      32.568  -1.511 -11.012  0.00  0.00     0.400 HD
ENDBRANCH  42  43
ENDBRANCH  41  42
BRANCH  41  45
ATOM     45  C   SER A   5      30.785   2.224 -10.979  0.00  0.00     0.569 C 
ATOM     46  O   SER A   5      31.047   2.508  -9.809  0.00  0.00    -0.570 OA
ATOM     47  N   TRP A   6      29.587   2.536 -11.573  0.00  0.00    -0.730 N 
ATOM     48  HN  TRP A   6      29.327   2.125 -12.463  0.00  0.00     0.370 HD
BRANCH  47  49
ATOM     49  CA  TRP A   6      28.536   3.247 -10.847  0.00  0.00     0.361 C 
BRANCH  49  50
ATOM     50  CB  TRP A   6      28.662   4.773 -10.981  0.00  0.00     0.181 C 
BRANCH  50  51
ATOM     51  CG  TRP A   6      29.534   5.224 -12.117  0.00  0.00    -0.181 A 
ATOM     52  CD1 TRP A   6      30.800   5.768 -11.994  0.00  0.00    -0.152 A 
ATOM     53  NE1 TRP A   6      31.269   6.056 -13.246  0.00  0.00     0.033 N 
ATOM     54  CE2 TRP A   6      30.335   5.714 -14.195  0.00  0.00    -0.152 A 
ATOM     55  HE1 TRP A   6      32.173   6.459 -13.453  0.00  0.00     0.270 HD
ATOM     56  CD2 TRP A   6      29.238   5.180 -13.518  0.00  0.00     0.000 A 
ATOM     57  CZ2 TRP A   6      30.385   5.837 -15.588  0.00  0.00     0.000 A 
ATOM     58  CE3 TRP A   6      28.134   4.745 -14.280  0.00  0.00     0.000 A 
ATOM     59  CZ3 TRP A   6      28.164   4.865 -15.674  0.00  0.00     0.000 A 
ATOM     60  CH2 TRP A   6      29.275   5.402 -16.316  0.00  0.00     0.000 A 
ENDBRANCH  50  51
ENDBRANCH  49  50
BRANCH  49  61
ATOM     61  C   TRP A   6      27.189   2.804 -11.437  0.00  0.00     0.569 C 
ATOM     62  O   TRP A   6      26.206   3.544 -11.474  0.00  0.00    -0.570 OA
ATOM     63  N   SER A   7      27.149   1.507 -11.883  0.00  0.00    -0.730 N 
ATOM     64  HN  SER A   7      27.922   0.869 -11.696  0.00  0.00     0.370 HD
BRANCH  63  65
ATOM     65  CA  SER A   7      25.910   0.878 -12.353  0.00  0.00     0.361 C 
BRANCH  65  66
ATOM     66  CB  SER A   7      25.942   0.617 -13.862  0.00  0.00     0.280 C 
BRANCH  66  67
ATOM     67  OG  SER A   7      25.801   1.827 -14.606  0.00  0.00    -0.680 OA
ATOM     68  HG  SER A   7      24.901   1.816 -14.982  0.00  0.00     0.400 HD
ENDBRANCH  66  67
ENDBRANCH  65  66
BRANCH  65  69
ATOM     69  C   SER A   7      25.721  -0.406 -11.523  0.00  0.00     0.569 C 
ATOM     70  O   SER A   7      26.599  -0.835 -10.772  0.00  0.00    -0.570 OA
ATOM     71  N   NHH A   8      24.507  -1.024 -11.569  0.00  0.00    -0.800 N 
ATOM     72  HN1 NHH A   8      23.904  -0.940 -12.375  0.00  0.00     0.370 HD
ATOM     73  HN2 NHH A   8      24.460  -1.909 -11.075  0.00  0.00     0.370 HD
ENDBRANCH  65  69
ENDBRANCH  63  65
ENDBRANCH  49  61
ENDBRANCH  47  49
ENDBRANCH  41  45
ENDBRANCH   3  41
TORSDOF 24
ENDMDL
MODEL 2
REMARK VINA RESULT:     -10.3      2.285      8.657
REMARK  24 active torsions:
REMARK  status: ('A' for Active; 'I' for Inactive)
REMARK    1  A    between atoms: CA_7  and  N_1 
REMARK       I    between atoms: C_3  and  N_1 
REMARK    2  A    between atoms: CA_2  and  N_6 
REMARK    3  A    between atoms: CA_2  and  C_3 
REMARK    4  A    between atoms: CA_7  and  C_11 
REMARK       I    between atoms: C_11  and  N_15 
REMARK    5  A    between atoms: CA_16  and  N_15 
REMARK    6  A    between atoms: CA_16  and  CB_19 
REMARK    7  A    between atoms: CA_16  and  C_17 
REMARK       I    between atoms: C_17  and  N_27 
REMARK    8  A    between atoms: CB_19  and  CG_20 
REMARK    9  A    between atoms: CA_28  and  N_27 
REMARK   10  A    between atoms: CA_28  and  CB_31 
REMARK   11  A    between atoms: CA_28  and  C_29 
REMARK       I    between atoms: C_29  and  N_39 
REMARK   12  A    between atoms: CB_31  and  CG_32 
REMARK   13  A    between atoms: CA_40  and  N_39 
REMARK   14  A    between atoms: CA_40  and  CB_43 
REMARK   15  A    between atoms: CA_40  and  C_41 
REMARK       I    between atoms: C_41  and  N_47 
REMARK   16  A    between atoms: CB_43  and  OG_44 
REMARK   17  A    between atoms: CA_48  and  N_47 
REMARK   18  A    between atoms: CA_48  and  CB_51 
REMARK   19  A    between atoms: CA_48  and  C_49 
REMARK       I    between atoms: C_49  and  N_63 
REMARK   20  A    between atoms: CB_51  and  CG_52 
REMARK   21  A    between atoms: CA_64  and  N_63 
REMARK   22  A    between atoms: CA_64  and  CB_67 
REMARK   23  A    between atoms: CA_64  and  C_65 
REMARK       I    between atoms: C_65  and  N_71 
REMARK   24  A    between atoms: CB_67  and  OG_68 
ROOT
ATOM      1  C   HIS A   4      34.804   5.200 -11.247  0.00  0.00     0.569 C 
ATOM      2  O   HIS A   4      35.832   5.822 -11.509  0.00  0.00    -0.570 OA
ATOM      3  N   SER A   5      34.717   3.837 -11.363  0.00  0.00    -0.730 N 
ATOM      4  HN  SER A   5      33.813   3.367 -11.278  0.00  0.00     0.370 HD
ENDROOT
BRANCH   1   5
ATOM      5  CA  HIS A   4      33.513   5.892 -10.778  0.00  0.00     0.361 C 
BRANCH   5   6
ATOM      6  N   HIS A   4      32.405   4.973 -11.031  0.00  0.00    -0.730 N 
ATOM      7  HN  HIS A   4      32.616   3.986 -10.887  0.00  0.00     0.370 HD
ATOM      8  C   PHE A   3      31.290   5.323 -11.752  0.00  0.00     0.569 C 
ATOM      9  O   PHE A   3      31.029   6.485 -12.072  0.00  0.00    -0.570 OA
BRANCH   8  10
ATOM     10  CA  PHE A   3      30.378   4.146 -12.156  0.00  0.00     0.361 C 
BRANCH  10  11
ATOM     11  N   PHE A   3      28.998   4.598 -11.951  0.00  0.00    -0.730 N 
ATOM     12  HN  PHE A   3      28.691   5.375 -12.529  0.00  0.00     0.370 HD
ATOM     13  C   ALA A   2      28.147   3.990 -11.068  0.00  0.00     0.569 C 
ATOM     14  O   ALA A   2      28.467   3.013 -10.388  0.00  0.00    -0.570 OA
BRANCH  13  15
ATOM     15  CA  ALA A   2      26.733   4.594 -10.978  0.00  0.00     0.361 C 
ATOM     16  CB  ALA A   2      26.522   5.316  -9.655  0.00  0.00     0.000 C 
BRANCH  15  17
ATOM     17  N   ALA A   2      25.791   3.478 -11.126  0.00  0.00    -0.730 N 
ATOM     18  HN  ALA A   2      25.618   2.962 -10.263  0.00  0.00     0.370 HD
ATOM     19  C   ALA A   1      25.347   3.040 -12.338  0.00  0.00     0.569 C 
ATOM     20  O   ALA A   1      25.627   3.580 -13.409  0.00  0.00    -0.570 OA
BRANCH  19  21
ATOM     21  CA  ALA A   1      24.410   1.819 -12.339  0.00  0.00     0.564 C 
ATOM     22  CB  ALA A   1      24.801   0.782 -13.378  0.00  0.00     0.000 C 
BRANCH  21  23
ATOM     23  N   AMN A   0      23.013   2.286 -12.646  0.00  0.00    -0.853 N 
ATOM     24  HN2 AMN A   0      22.852   3.282 -12.461  0.00  0.00     0.450 HD
ATOM     25  HN1 AMN A   0      22.329   1.721 -12.122  0.00  0.00     0.450 HD
ATOM     26  HN3 AMN A   0      22.804   2.085 -13.635  0.00  0.00     0.450 HD
ENDBRANCH  21  23
ENDBRANCH  19  21
ENDBRANCH  15  17
ENDBRANCH  13  15
ENDBRANCH  10  11
BRANCH  10  27
ATOM     27  CB  PHE A   3      30.616   3.749 -13.625  0.00  0.00     0.143 C 
BRANCH  27  28
ATOM     28  CG  PHE A   3      29.740   2.617 -14.103  0.00  0.00    -0.143 A 
ATOM     29  CD1 PHE A   3      28.935   2.774 -15.241  0.00  0.00     0.000 A 
ATOM     30  CE1 PHE A   3      28.168   1.711 -15.716  0.00  0.00     0.000 A 
ATOM     31  CZ  PHE A   3      28.198   0.483 -15.060  0.00  0.00     0.000 A 
ATOM     32  CE2 PHE A   3      28.984   0.320 -13.921  0.00  0.00     0.000 A 
ATOM     33  CD2 PHE A   3      29.750   1.382 -13.441  0.00  0.00     0.000 A 
ENDBRANCH  27  28
ENDBRANCH  10  27
ENDBRANCH   8  10
ENDBRANCH   5   6
BRANCH   5  34
ATOM     34  CB  HIS A   4      33.643   6.286  -9.295  0.00  0.00     0.180 C 
BRANCH  34  35
ATOM     35  CG  HIS A   4      32.521   7.162  -8.854  0.00  0.00    -0.332 A 
ATOM     36  ND1 HIS A   4      32.031   8.183  -9.632  0.00  0.00     0.033 N 
ATOM     37  CE1 HIS A   4      31.025   8.784  -8.934  0.00  0.00     0.187 A 
ATOM     38  HD1 HIS A   4      32.391   8.462 -10.542  0.00  0.00     0.270 HD
ATOM     39  NE2 HIS A   4      30.839   8.212  -7.768  0.00  0.00    -0.565 NA
ATOM     40  CD2 HIS A   4      31.764   7.202  -7.704  0.00  0.00     0.227 A 
ENDBRANCH  34  35
ENDBRANCH   5  34
ENDBRANCH   1   5
BRANCH   3  41
ATOM     41  CA  SER A   5      35.790   3.039 -11.959  0.00  0.00     0.361 C 
BRANCH  41  42
ATOM     42  CB  SER A   5      36.787   2.535 -10.908  0.00  0.00     0.280 C 
BRANCH  42  43
ATOM     43  OG  SER A   5      36.185   2.431  -9.618  0.00  0.00    -0.680 OA
ATOM     44  HG  SER A   5      36.627   1.684  -9.174  0.00  0.00     0.400 HD
ENDBRANCH  42  43
ENDBRANCH  41  42
BRANCH  41  45
ATOM     45  C   SER A   5      35.124   1.881 -12.717  0.00  0.00     0.569 C 
ATOM     46  O   SER A   5      34.962   1.921 -13.938  0.00  0.00    -0.570 OA
ATOM     47  N   TRP A   6      34.773   0.796 -11.951  0.00  0.00    -0.730 N 
ATOM     48  HN  TRP A   6      34.737   0.865 -10.940  0.00  0.00     0.370 HD
BRANCH  47  49
ATOM     49  CA  TRP A   6      34.187  -0.403 -12.548  0.00  0.00     0.361 C 
BRANCH  49  50
ATOM     50  CB  TRP A   6      35.113  -1.624 -12.434  0.00  0.00     0.181 C 
BRANCH  50  51
ATOM     51  CG  TRP A   6      36.523  -1.376 -12.886  0.00  0.00    -0.181 A 
ATOM     52  CD1 TRP A   6      36.937  -1.245 -14.199  0.00  0.00    -0.152 A 
ATOM     53  NE1 TRP A   6      38.289  -1.033 -14.206  0.00  0.00     0.033 N 
ATOM     54  CE2 TRP A   6      38.776  -1.025 -12.921  0.00  0.00    -0.152 A 
ATOM     55  HE1 TRP A   6      38.855  -0.898 -15.033  0.00  0.00     0.270 HD
ATOM     56  CD2 TRP A   6      37.690  -1.229 -12.068  0.00  0.00     0.000 A 
ATOM     57  CZ2 TRP A   6      40.086  -0.852 -12.459  0.00  0.00     0.000 A 
ATOM     58  CE3 TRP A   6      37.932  -1.259 -10.679  0.00  0.00     0.000 A 
ATOM     59  CZ3 TRP A   6      39.236  -1.092 -10.199  0.00  0.00     0.000 A 
ATOM     60  CH2 TRP A   6      40.296  -0.891 -11.079  0.00  0.00     0.000 A 
ENDBRANCH  50  51
ENDBRANCH  49  50
BRANCH  49  61
ATOM     61  C   TRP A   6      32.879  -0.697 -11.799  0.00  0.00     0.569 C 
ATOM     62  O   TRP A   6      32.492  -0.016 -10.850  0.00  0.00    -0.570 OA
ATOM     63  N   SER A   7      32.194  -1.803 -12.238  0.00  0.00    -0.730 N 
ATOM     64  HN  SER A   7      32.615  -2.438 -12.915  0.00  0.00     0.370 HD
BRANCH  63  65
ATOM     65  CA  SER A   7      30.999  -2.306 -11.553  0.00  0.00     0.361 C 
BRANCH  65  66
ATOM     66  CB  SER A   7      29.956  -2.832 -12.544  0.00  0.00     0.280 C 
BRANCH  66  67
ATOM     67  OG  SER A   7      29.709  -4.225 -12.355  0.00  0.00    -0.680 OA
ATOM     68  HG  SER A   7      30.582  -4.646 -12.244  0.00  0.00     0.400 HD
ENDBRANCH  66  67
ENDBRANCH  65  66
BRANCH  65  69
ATOM     69  C   SER A   7      31.477  -3.378 -10.556  0.00  0.00     0.569 C 
ATOM     70  O   SER A   7      30.908  -3.572  -9.481  0.00  0.00    -0.570 OA
ATOM     71  N   NHH A   8      32.510  -4.184 -10.932  0.00  0.00    -0.800 N 
ATOM     72  HN1 NHH A   8      33.205  -3.875 -11.597  0.00  0.00     0.370 HD
ATOM     73  HN2 NHH A   8      32.843  -4.815 -10.211  0.00  0.00     0.370 HD
ENDBRANCH  65  69
ENDBRANCH  63  65
ENDBRANCH  49  61
ENDBRANCH  47  49
ENDBRANCH  41  45
ENDBRANCH   3  41
TORSDOF 24
ENDMDL
MODEL 3
REMARK VINA RESULT:     -10.1      2.532      5.961
REMARK  24 active torsions:
REMARK  status: ('A' for Active; 'I' for Inactive)
REMARK    1  A    between atoms: CA_7  and  N_1 
REMARK       I    between atoms: C_3  and  N_1 
REMARK    2  A    between atoms: CA_2  and  N_6 
REMARK    3  A    between atoms: CA_2  and  C_3 
REMARK    4  A    between atoms: CA_7  and  C_11 
REMARK       I    between atoms: C_11  and  N_15 
REMARK    5  A    between atoms: CA_16  and  N_15 
REMARK    6  A    between atoms: CA_16  and  CB_19 
REMARK    7  A    between atoms: CA_16  and  C_17 
REMARK       I    between atoms: C_17  and  N_27 
REMARK    8  A    between atoms: CB_19  and  CG_20 
REMARK    9  A    between atoms: CA_28  and  N_27 
REMARK   10  A    between atoms: CA_28  and  CB_31 
REMARK   11  A    between atoms: CA_28  and  C_29 
REMARK       I    between atoms: C_29  and  N_39 
REMARK   12  A    between atoms: CB_31  and  CG_32 
REMARK   13  A    between atoms: CA_40  and  N_39 
REMARK   14  A    between atoms: CA_40  and  CB_43 
REMARK   15  A    between atoms: CA_40  and  C_41 
REMARK       I    between atoms: C_41  and  N_47 
REMARK   16  A    between atoms: CB_43  and  OG_44 
REMARK   17  A    between atoms: CA_48  and  N_47 
REMARK   18  A    between atoms: CA_48  and  CB_51 
REMARK   19  A    between atoms: CA_48  and  C_49 
REMARK       I    between atoms: C_49  and  N_63 
REMARK   20  A    between atoms: CB_51  and  CG_52 
REMARK   21  A    between atoms: CA_64  and  N_63 
REMARK   22  A    between atoms: CA_64  and  CB_67 
REMARK   23  A    between atoms: CA_64  and  C_65 
REMARK       I    between atoms: C_65  and  N_71 
REMARK   24  A    between atoms: CB_67  and  OG_68 
ROOT
ATOM      1  C   HIS A   4      31.437   5.666 -12.445  0.00  0.00     0.569 C 
ATOM      2  O   HIS A   4      30.843   6.731 -12.603  0.00  0.00    -0.570 OA
ATOM      3  N   SER A   5      31.012   4.492 -13.014  0.00  0.00    -0.730 N 
ATOM      4  HN  SER A   5      31.441   3.604 -12.748  0.00  0.00     0.370 HD
ENDROOT
BRANCH   1   5
ATOM      5  CA  HIS A   4      32.705   5.543 -11.584  0.00  0.00     0.361 C 
BRANCH   5   6
ATOM      6  N   HIS A   4      33.474   4.410 -12.093  0.00  0.00    -0.730 N 
ATOM      7  HN  HIS A   4      33.130   4.006 -12.964  0.00  0.00     0.370 HD
ATOM      8  C   PHE A   3      34.351   3.689 -11.319  0.00  0.00     0.569 C 
ATOM      9  O   PHE A   3      34.719   4.052 -10.200  0.00  0.00    -0.570 OA
BRANCH   8  10
ATOM     10  CA  PHE A   3      34.839   2.367 -11.944  0.00  0.00     0.361 C 
BRANCH  10  11
ATOM     11  N   PHE A   3      35.722   1.738 -10.955  0.00  0.00    -0.730 N 
ATOM     12  HN  PHE A   3      35.272   1.378 -10.119  0.00  0.00     0.370 HD
ATOM     13  C   ALA A   2      37.069   1.599 -11.153  0.00  0.00     0.569 C 
ATOM     14  O   ALA A   2      37.643   1.978 -12.177  0.00  0.00    -0.570 OA
BRANCH  13  15
ATOM     15  CA  ALA A   2      37.846   0.916 -10.012  0.00  0.00     0.361 C 
ATOM     16  CB  ALA A   2      37.395   1.428  -8.651  0.00  0.00     0.000 C 
BRANCH  15  17
ATOM     17  N   ALA A   2      39.265   1.206 -10.240  0.00  0.00    -0.730 N 
ATOM     18  HN  ALA A   2      39.489   2.201 -10.269  0.00  0.00     0.370 HD
ATOM     19  C   ALA A   1      40.170   0.247 -10.587  0.00  0.00     0.569 C 
ATOM     20  O   ALA A   1      39.904  -0.953 -10.665  0.00  0.00    -0.570 OA
BRANCH  19  21
ATOM     21  CA  ALA A   1      41.612   0.711 -10.855  0.00  0.00     0.564 C 
ATOM     22  CB  ALA A   1      41.888   2.105 -10.318  0.00  0.00     0.000 C 
BRANCH  21  23
ATOM     23  N   AMN A   0      41.845   0.727 -12.342  0.00  0.00    -0.853 N 
ATOM     24  HN2 AMN A   0      41.106   0.271 -12.887  0.00  0.00     0.450 HD
ATOM     25  HN1 AMN A   0      42.754   0.295 -12.561  0.00  0.00     0.450 HD
ATOM     26  HN3 AMN A   0      41.945   1.704 -12.652  0.00  0.00     0.450 HD
ENDBRANCH  21  23
ENDBRANCH  19  21
ENDBRANCH  15  17
ENDBRANCH  13  15
ENDBRANCH  10  11
BRANCH  10  27
ATOM     27  CB  PHE A   3      33.650   1.450 -12.284  0.00  0.00     0.143 C 
BRANCH  27  28
ATOM     28  CG  PHE A   3      34.031   0.004 -12.493  0.00  0.00    -0.143 A 
ATOM     29  CD1 PHE A   3      34.918  -0.355 -13.518  0.00  0.00     0.000 A 
ATOM     30  CE1 PHE A   3      35.315  -1.683 -13.677  0.00  0.00     0.000 A 
ATOM     31  CZ  PHE A   3      34.827  -2.663 -12.815  0.00  0.00     0.000 A 
ATOM     32  CE2 PHE A   3      33.934  -2.318 -11.802  0.00  0.00     0.000 A 
ATOM     33  CD2 PHE A   3      33.533  -0.992 -11.642  0.00  0.00     0.000 A 
ENDBRANCH  27  28
ENDBRANCH  10  27
ENDBRANCH   8  10
ENDBRANCH   5   6
BRANCH   5  34
ATOM     34  CB  HIS A   4      33.489   6.869 -11.621  0.00  0.00     0.180 C 
BRANCH  34  35
ATOM     35  CG  HIS A   4      33.424   7.587 -10.317  0.00  0.00    -0.332 A 
ATOM     36  ND1 HIS A   4      33.205   8.941 -10.228  0.00  0.00     0.033 N 
ATOM     37  CE1 HIS A   4      33.214   9.273  -8.905  0.00  0.00     0.187 A 
ATOM     38  HD1 HIS A   4      33.103   9.578 -11.014  0.00  0.00     0.270 HD
ATOM     39  NE2 HIS A   4      33.418   8.221  -8.146  0.00  0.00    -0.565 NA
ATOM     40  CD2 HIS A   4      33.552   7.166  -9.012  0.00  0.00     0.227 A 
ENDBRANCH  34  35
ENDBRANCH   5  34
ENDBRANCH   1   5
BRANCH   3  41
ATOM     41  CA  SER A   5      29.732   4.391 -13.718  0.00  0.00     0.361 C 
BRANCH  41  42
ATOM     42  CB  SER A   5      29.891   4.570 -15.233  0.00  0.00     0.280 C 
BRANCH  42  43
ATOM     43  OG  SER A   5      28.740   4.110 -15.942  0.00  0.00    -0.680 OA
ATOM     44  HG  SER A   5      28.686   4.655 -16.749  0.00  0.00     0.400 HD
ENDBRANCH  42  43
ENDBRANCH  41  42
BRANCH  41  45
ATOM     45  C   SER A   5      29.129   3.024 -13.364  0.00  0.00     0.569 C 
ATOM     46  O   SER A   5      28.286   2.905 -12.474  0.00  0.00    -0.570 OA
ATOM     47  N   TRP A   6      29.558   1.970 -14.132  0.00  0.00    -0.730 N 
ATOM     48  HN  TRP A   6      30.382   2.056 -14.717  0.00  0.00     0.370 HD
BRANCH  47  49
ATOM     49  CA  TRP A   6      29.022   0.622 -13.949  0.00  0.00     0.361 C 
BRANCH  49  50
ATOM     50  CB  TRP A   6      29.242   0.095 -12.523  0.00  0.00     0.181 C 
BRANCH  50  51
ATOM     51  CG  TRP A   6      29.658  -1.346 -12.453  0.00  0.00    -0.181 A 
ATOM     52  CD1 TRP A   6      29.622  -2.247 -13.501  0.00  0.00    -0.152 A 
ATOM     53  NE1 TRP A   6      30.073  -3.456 -13.047  0.00  0.00     0.033 N 
ATOM     54  CE2 TRP A   6      30.403  -3.371 -11.716  0.00  0.00    -0.152 A 
ATOM     55  HE1 TRP A   6      30.157  -4.295 -13.604  0.00  0.00     0.270 HD
ATOM     56  CD2 TRP A   6      30.162  -2.056 -11.315  0.00  0.00     0.000 A 
ATOM     57  CZ2 TRP A   6      30.895  -4.354 -10.848  0.00  0.00     0.000 A 
ATOM     58  CE3 TRP A   6      30.431  -1.709  -9.975  0.00  0.00     0.000 A 
ATOM     59  CZ3 TRP A   6      30.918  -2.680  -9.092  0.00  0.00     0.000 A 
ATOM     60  CH2 TRP A   6      31.147  -3.983  -9.526  0.00  0.00     0.000 A 
ENDBRANCH  50  51
ENDBRANCH  49  50
BRANCH  49  61
ATOM     61  C   TRP A   6      27.514   0.685 -14.231  0.00  0.00     0.569 C 
ATOM     62  O   TRP A   6      27.058   0.891 -15.356  0.00  0.00    -0.570 OA
ATOM     63  N   SER A   7      26.710   0.538 -13.128  0.00  0.00    -0.730 N 
ATOM     64  HN  SER A   7      27.112   0.530 -12.191  0.00  0.00     0.370 HD
BRANCH  63  65
ATOM     65  CA  SER A   7      25.254   0.704 -13.192  0.00  0.00     0.361 C 
BRANCH  65  66
ATOM     66  CB  SER A   7      24.532  -0.233 -12.219  0.00  0.00     0.280 C 
BRANCH  66  67
ATOM     67  OG  SER A   7      23.235   0.259 -11.884  0.00  0.00    -0.680 OA
ATOM     68  HG  SER A   7      23.133   1.110 -12.351  0.00  0.00     0.400 HD
ENDBRANCH  66  67
ENDBRANCH  65  66
BRANCH  65  69
ATOM     69  C   SER A   7      24.965   2.193 -12.922  0.00  0.00     0.569 C 
ATOM     70  O   SER A   7      24.594   2.598 -11.819  0.00  0.00    -0.570 OA
ATOM     71  N   NHH A   8      25.216   3.085 -13.922  0.00  0.00    -0.800 N 
ATOM     72  HN1 NHH A   8      25.182   2.809 -14.894  0.00  0.00     0.370 HD
ATOM     73  HN2 NHH A   8      24.930   4.037 -13.726  0.00  0.00     0.370 HD
ENDBRANCH  65  69
ENDBRANCH  63  65
ENDBRANCH  49  61
ENDBRANCH  47  49
ENDBRANCH  41  45
ENDBRANCH   3  41
TORSDOF 24
ENDMDL
MODEL 4
REMARK VINA RESULT:     -10.1      2.256      9.584
REMARK  24 active torsions:
REMARK  status: ('A' for Active; 'I' for Inactive)
REMARK    1  A    between atoms: CA_7  and  N_1 
REMARK       I    between atoms: C_3  and  N_1 
REMARK    2  A    between atoms: CA_2  and  N_6 
REMARK    3  A    between atoms: CA_2  and  C_3 
REMARK    4  A    between atoms: CA_7  and  C_11 
REMARK       I    between atoms: C_11  and  N_15 
REMARK    5  A    between atoms: CA_16  and  N_15 
REMARK    6  A    between atoms: CA_16  and  CB_19 
REMARK    7  A    between atoms: CA_16  and  C_17 
REMARK       I    between atoms: C_17  and  N_27 
REMARK    8  A    between atoms: CB_19  and  CG_20 
REMARK    9  A    between atoms: CA_28  and  N_27 
REMARK   10  A    between atoms: CA_28  and  CB_31 
REMARK   11  A    between atoms: CA_28  and  C_29 
REMARK       I    between atoms: C_29  and  N_39 
REMARK   12  A    between atoms: CB_31  and  CG_32 
REMARK   13  A    between atoms: CA_40  and  N_39 
REMARK   14  A    between atoms: CA_40  and  CB_43 
REMARK   15  A    between atoms: CA_40  and  C_41 
REMARK       I    between atoms: C_41  and  N_47 
REMARK   16  A    between atoms: CB_43  and  OG_44 
REMARK   17  A    between atoms: CA_48  and  N_47 
REMARK   18  A    between atoms: CA_48  and  CB_51 
REMARK   19  A    between atoms: CA_48  and  C_49 
REMARK       I    between atoms: C_49  and  N_63 
REMARK   20  A    between atoms: CB_51  and  CG_52 
REMARK   21  A    between atoms: CA_64  and  N_63 
REMARK   22  A    between atoms: CA_64  and  CB_67 
REMARK   23  A    between atoms: CA_64  and  C_65 
REMARK       I    between atoms: C_65  and  N_71 
REMARK   24  A    between atoms: CB_67  and  OG_68 
ROOT
ATOM      1  C   HIS A   4      32.838   3.638 -11.826  0.00  0.00     0.569 C 
ATOM      2  O   HIS A   4      32.716   3.907 -13.019  0.00  0.00    -0.570 OA
ATOM      3  N   SER A   5      34.036   3.264 -11.273  0.00  0.00    -0.730 N 
ATOM      4  HN  SER A   5      34.075   2.910 -10.315  0.00  0.00     0.370 HD
ENDROOT
BRANCH   1   5
ATOM      5  CA  HIS A   4      31.658   3.680 -10.841  0.00  0.00     0.361 C 
BRANCH   5   6
ATOM      6  N   HIS A   4      31.022   2.365 -10.861  0.00  0.00    -0.730 N 
ATOM      7  HN  HIS A   4      31.588   1.613 -11.255  0.00  0.00     0.370 HD
ATOM      8  C   PHE A   3      29.668   2.183 -10.722  0.00  0.00     0.569 C 
ATOM      9  O   PHE A   3      28.899   3.080 -10.368  0.00  0.00    -0.570 OA
BRANCH   8  10
ATOM     10  CA  PHE A   3      29.160   0.766 -11.060  0.00  0.00     0.361 C 
BRANCH  10  11
ATOM     11  N   PHE A   3      27.708   0.875 -11.236  0.00  0.00    -0.730 N 
ATOM     12  HN  PHE A   3      27.356   1.789 -11.503  0.00  0.00     0.370 HD
ATOM     13  C   ALA A   2      26.867  -0.196 -11.095  0.00  0.00     0.569 C 
ATOM     14  O   ALA A   2      27.262  -1.332 -10.821  0.00  0.00    -0.570 OA
BRANCH  13  15
ATOM     15  CA  ALA A   2      25.371   0.095 -11.314  0.00  0.00     0.361 C 
ATOM     16  CB  ALA A   2      24.610  -1.169 -11.693  0.00  0.00     0.000 C 
BRANCH  15  17
ATOM     17  N   ALA A   2      25.292   1.097 -12.383  0.00  0.00    -0.730 N 
ATOM     18  HN  ALA A   2      25.681   0.788 -13.274  0.00  0.00     0.370 HD
ATOM     19  C   ALA A   1      24.924   2.391 -12.159  0.00  0.00     0.569 C 
ATOM     20  O   ALA A   1      24.551   2.819 -11.066  0.00  0.00    -0.570 OA
BRANCH  19  21
ATOM     21  CA  ALA A   1      24.948   3.343 -13.366  0.00  0.00     0.564 C 
ATOM     22  CB  ALA A   1      26.221   4.169 -13.436  0.00  0.00     0.000 C 
BRANCH  21  23
ATOM     23  N   AMN A   0      23.782   4.289 -13.256  0.00  0.00    -0.853 N 
ATOM     24  HN2 AMN A   0      23.846   4.944 -12.471  0.00  0.00     0.450 HD
ATOM     25  HN1 AMN A   0      22.902   3.757 -13.193  0.00  0.00     0.450 HD
ATOM     26  HN3 AMN A   0      23.698   4.818 -14.137  0.00  0.00     0.450 HD
ENDBRANCH  21  23
ENDBRANCH  19  21
ENDBRANCH  15  17
ENDBRANCH  13  15
ENDBRANCH  10  11
BRANCH  10  27
ATOM     27  CB  PHE A   3      29.833   0.235 -12.339  0.00  0.00     0.143 C 
BRANCH  27  28
ATOM     28  CG  PHE A   3      29.286   0.832 -13.613  0.00  0.00    -0.143 A 
ATOM     29  CD1 PHE A   3      28.393   0.104 -14.412  0.00  0.00     0.000 A 
ATOM     30  CE1 PHE A   3      27.843   0.676 -15.559  0.00  0.00     0.000 A 
ATOM     31  CZ  PHE A   3      28.181   1.978 -15.918  0.00  0.00     0.000 A 
ATOM     32  CE2 PHE A   3      29.079   2.706 -15.138  0.00  0.00     0.000 A 
ATOM     33  CD2 PHE A   3      29.632   2.136 -13.992  0.00  0.00     0.000 A 
ENDBRANCH  27  28
ENDBRANCH  10  27
ENDBRANCH   8  10
ENDBRANCH   5   6
BRANCH   5  34
ATOM     34  CB  HIS A   4      32.161   4.086  -9.443  0.00  0.00     0.180 C 
BRANCH  34  35
ATOM     35  CG  HIS A   4      32.313   5.563  -9.316  0.00  0.00    -0.332 A 
ATOM     36  ND1 HIS A   4      33.448   6.148  -8.807  0.00  0.00     0.033 N 
ATOM     37  CE1 HIS A   4      33.256   7.499  -8.823  0.00  0.00     0.187 A 
ATOM     38  HD1 HIS A   4      34.259   5.653  -8.445  0.00  0.00     0.270 HD
ATOM     39  NE2 HIS A   4      32.078   7.811  -9.312  0.00  0.00    -0.565 NA
ATOM     40  CD2 HIS A   4      31.481   6.617  -9.621  0.00  0.00     0.227 A 
ENDBRANCH  34  35
ENDBRANCH   5  34
ENDBRANCH   1   5
BRANCH   3  41
ATOM     41  CA  SER A   5      35.222   3.005 -12.093  0.00  0.00     0.361 C 
BRANCH  41  42
ATOM     42  CB  SER A   5      36.495   3.587 -11.468  0.00  0.00     0.280 C 
BRANCH  42  43
ATOM     43  OG  SER A   5      36.471   5.015 -11.456  0.00  0.00    -0.680 OA
ATOM     44  HG  SER A   5      37.250   5.292 -10.939  0.00  0.00     0.400 HD
ENDBRANCH  42  43
ENDBRANCH  41  42
BRANCH  41  45
ATOM     45  C   SER A   5      35.318   1.484 -12.277  0.00  0.00     0.569 C 
ATOM     46  O   SER A   5      35.340   0.972 -13.397  0.00  0.00    -0.570 OA
ATOM     47  N   TRP A   6      35.424   0.752 -11.119  0.00  0.00    -0.730 N 
ATOM     48  HN  TRP A   6      35.209   1.171 -10.220  0.00  0.00     0.370 HD
BRANCH  47  49
ATOM     49  CA  TRP A   6      35.586  -0.700 -11.144  0.00  0.00     0.361 C 
BRANCH  49  50
ATOM     50  CB  TRP A   6      34.861  -1.349 -12.334  0.00  0.00     0.181 C 
BRANCH  50  51
ATOM     51  CG  TRP A   6      34.065  -2.572 -11.982  0.00  0.00    -0.181 A 
ATOM     52  CD1 TRP A   6      34.317  -3.855 -12.430  0.00  0.00    -0.152 A 
ATOM     53  NE1 TRP A   6      33.376  -4.692 -11.896  0.00  0.00     0.033 N 
ATOM     54  CE2 TRP A   6      32.503  -3.984 -11.105  0.00  0.00    -0.152 A 
ATOM     55  HE1 TRP A   6      33.323  -5.689 -12.054  0.00  0.00     0.270 HD
ATOM     56  CD2 TRP A   6      32.915  -2.650 -11.131  0.00  0.00     0.000 A 
ATOM     57  CZ2 TRP A   6      31.392  -4.424 -10.376  0.00  0.00     0.000 A 
ATOM     58  CE3 TRP A   6      32.174  -1.711 -10.384  0.00  0.00     0.000 A 
ATOM     59  CZ3 TRP A   6      31.057  -2.133  -9.652  0.00  0.00     0.000 A 
ATOM     60  CH2 TRP A   6      30.675  -3.471  -9.650  0.00  0.00     0.000 A 
ENDBRANCH  50  51
ENDBRANCH  49  50
BRANCH  49  61
ATOM     61  C   TRP A   6      37.089  -0.993 -11.256  0.00  0.00     0.569 C 
ATOM     62  O   TRP A   6      37.738  -1.488 -10.335  0.00  0.00    -0.570 OA
ATOM     63  N   SER A   7      37.667  -0.620 -12.445  0.00  0.00    -0.730 N 
ATOM     64  HN  SER A   7      37.144  -0.069 -13.125  0.00  0.00     0.370 HD
BRANCH  63  65
ATOM     65  CA  SER A   7      39.113  -0.703 -12.673  0.00  0.00     0.361 C 
BRANCH  65  66
ATOM     66  CB  SER A   7      39.459  -0.625 -14.163  0.00  0.00     0.280 C 
BRANCH  66  67
ATOM     67  OG  SER A   7      39.118   0.647 -14.714  0.00  0.00    -0.680 OA
ATOM     68  HG  SER A   7      39.936   1.178 -14.708  0.00  0.00     0.400 HD
ENDBRANCH  66  67
ENDBRANCH  65  66
BRANCH  65  69
ATOM     69  C   SER A   7      39.757   0.425 -11.845  0.00  0.00     0.569 C 
ATOM     70  O   SER A   7      39.546   1.615 -12.083  0.00  0.00    -0.570 OA
ATOM     71  N   NHH A   8      40.513   0.074 -10.766  0.00  0.00    -0.800 N 
ATOM     72  HN1 NHH A   8      40.989  -0.817 -10.723  0.00  0.00     0.370 HD
ATOM     73  HN2 NHH A   8      40.984   0.845 -10.306  0.00  0.00     0.370 HD
ENDBRANCH  65  69
ENDBRANCH  63  65
ENDBRANCH  49  61
ENDBRANCH  47  49
ENDBRANCH  41  45
ENDBRANCH   3  41
TORSDOF 24
ENDMDL
MODEL 5
REMARK VINA RESULT:     -10.0      2.212      9.798
REMARK  24 active torsions:
REMARK  status: ('A' for Active; 'I' for Inactive)
REMARK    1  A    between atoms: CA_7  and  N_1 
REMARK       I    between atoms: C_3  and  N_1 
REMARK    2  A    between atoms: CA_2  and  N_6 
REMARK    3  A    between atoms: CA_2  and  C_3 
REMARK    4  A    between atoms: CA_7  and  C_11 
REMARK       I    between atoms: C_11  and  N_15 
REMARK    5  A    between atoms: CA_16  and  N_15 
REMARK    6  A    between atoms: CA_16  and  CB_19 
REMARK    7  A    between atoms: CA_16  and  C_17 
REMARK       I    between atoms: C_17  and  N_27 
REMARK    8  A    between atoms: CB_19  and  CG_20 
REMARK    9  A    between atoms: CA_28  and  N_27 
REMARK   10  A    between atoms: CA_28  and  CB_31 
REMARK   11  A    between atoms: CA_28  and  C_29 
REMARK       I    between atoms: C_29  and  N_39 
REMARK   12  A    between atoms: CB_31  and  CG_32 
REMARK   13  A    between atoms: CA_40  and  N_39 
REMARK   14  A    between atoms: CA_40  and  CB_43 
REMARK   15  A    between atoms: CA_40  and  C_41 
REMARK       I    between atoms: C_41  and  N_47 
REMARK   16  A    between atoms: CB_43  and  OG_44 
REMARK   17  A    between atoms: CA_48  and  N_47 
REMARK   18  A    between atoms: CA_48  and  CB_51 
REMARK   19  A    between atoms: CA_48  and  C_49 
REMARK       I    between atoms: C_49  and  N_63 
REMARK   20  A    between atoms: CB_51  and  CG_52 
REMARK   21  A    between atoms: CA_64  and  N_63 
REMARK   22  A    between atoms: CA_64  and  CB_67 
REMARK   23  A    between atoms: CA_64  and  C_65 
REMARK       I    between atoms: C_65  and  N_71 
REMARK   24  A    between atoms: CB_67  and  OG_68 
ROOT
ATOM      1  C   HIS A   4      32.739   4.373 -11.624  0.00  0.00     0.569 C 
ATOM      2  O   HIS A   4      32.878   4.867 -12.742  0.00  0.00    -0.570 OA
ATOM      3  N   SER A   5      33.537   3.359 -11.161  0.00  0.00    -0.730 N 
ATOM      4  HN  SER A   5      33.306   2.876 -10.291  0.00  0.00     0.370 HD
ENDROOT
BRANCH   1   5
ATOM      5  CA  HIS A   4      31.648   4.836 -10.643  0.00  0.00     0.361 C 
BRANCH   5   6
ATOM      6  N   HIS A   4      30.444   4.058 -10.927  0.00  0.00    -0.730 N 
ATOM      7  HN  HIS A   4      29.685   4.576 -11.370  0.00  0.00     0.370 HD
ATOM      8  C   PHE A   3      30.175   2.849 -10.335  0.00  0.00     0.569 C 
ATOM      9  O   PHE A   3      31.006   2.219  -9.676  0.00  0.00    -0.570 OA
BRANCH   8  10
ATOM     10  CA  PHE A   3      28.737   2.329 -10.535  0.00  0.00     0.361 C 
BRANCH  10  11
ATOM     11  N   PHE A   3      28.112   3.204 -11.534  0.00  0.00    -0.730 N 
ATOM     12  HN  PHE A   3      28.590   3.275 -12.427  0.00  0.00     0.370 HD
ATOM     13  C   ALA A   2      26.931   3.857 -11.305  0.00  0.00     0.569 C 
ATOM     14  O   ALA A   2      26.297   3.754 -10.252  0.00  0.00    -0.570 OA
BRANCH  13  15
ATOM     15  CA  ALA A   2      26.417   4.734 -12.461  0.00  0.00     0.361 C 
ATOM     16  CB  ALA A   2      25.181   4.127 -13.111  0.00  0.00     0.000 C 
BRANCH  15  17
ATOM     17  N   ALA A   2      27.519   4.845 -13.424  0.00  0.00    -0.730 N 
ATOM     18  HN  ALA A   2      27.802   3.956 -13.838  0.00  0.00     0.370 HD
ATOM     19  C   ALA A   1      28.237   5.990 -13.599  0.00  0.00     0.569 C 
ATOM     20  O   ALA A   1      27.984   7.054 -13.031  0.00  0.00    -0.570 OA
BRANCH  19  21
ATOM     21  CA  ALA A   1      29.403   5.938 -14.600  0.00  0.00     0.564 C 
ATOM     22  CB  ALA A   1      29.633   4.544 -15.158  0.00  0.00     0.000 C 
BRANCH  21  23
ATOM     23  N   AMN A   0      30.661   6.374 -13.898  0.00  0.00    -0.853 N 
ATOM     24  HN2 AMN A   0      30.579   7.271 -13.409  0.00  0.00     0.450 HD
ATOM     25  HN1 AMN A   0      31.443   6.413 -14.567  0.00  0.00     0.450 HD
ATOM     26  HN3 AMN A   0      30.937   5.643 -13.225  0.00  0.00     0.450 HD
ENDBRANCH  21  23
ENDBRANCH  19  21
ENDBRANCH  15  17
ENDBRANCH  13  15
ENDBRANCH  10  11
BRANCH  10  27
ATOM     27  CB  PHE A   3      28.746   0.865 -11.013  0.00  0.00     0.143 C 
BRANCH  27  28
ATOM     28  CG  PHE A   3      28.323   0.687 -12.451  0.00  0.00    -0.143 A 
ATOM     29  CD1 PHE A   3      27.018   0.280 -12.762  0.00  0.00     0.000 A 
ATOM     30  CE1 PHE A   3      26.609   0.169 -14.091  0.00  0.00     0.000 A 
ATOM     31  CZ  PHE A   3      27.501   0.463 -15.120  0.00  0.00     0.000 A 
ATOM     32  CE2 PHE A   3      28.804   0.855 -14.822  0.00  0.00     0.000 A 
ATOM     33  CD2 PHE A   3      29.217   0.964 -13.493  0.00  0.00     0.000 A 
ENDBRANCH  27  28
ENDBRANCH  10  27
ENDBRANCH   8  10
ENDBRANCH   5   6
BRANCH   5  34
ATOM     34  CB  HIS A   4      32.147   4.670  -9.195  0.00  0.00     0.180 C 
BRANCH  34  35
ATOM     35  CG  HIS A   4      31.571   5.705  -8.290  0.00  0.00    -0.332 A 
ATOM     36  ND1 HIS A   4      32.319   6.737  -7.777  0.00  0.00     0.033 N 
ATOM     37  CE1 HIS A   4      31.497   7.488  -6.989  0.00  0.00     0.187 A 
ATOM     38  HD1 HIS A   4      33.315   6.881  -7.928  0.00  0.00     0.270 HD
ATOM     39  NE2 HIS A   4      30.276   7.006  -6.970  0.00  0.00    -0.565 NA
ATOM     40  CD2 HIS A   4      30.309   5.895  -7.774  0.00  0.00     0.227 A 
ENDBRANCH  34  35
ENDBRANCH   5  34
ENDBRANCH   1   5
BRANCH   3  41
ATOM     41  CA  SER A   5      34.509   2.682 -12.022  0.00  0.00     0.361 C 
BRANCH  41  42
ATOM     42  CB  SER A   5      35.924   3.244 -11.849  0.00  0.00     0.280 C 
BRANCH  42  43
ATOM     43  OG  SER A   5      36.553   2.738 -10.670  0.00  0.00    -0.680 OA
ATOM     44  HG  SER A   5      37.045   3.486 -10.285  0.00  0.00     0.400 HD
ENDBRANCH  42  43
ENDBRANCH  41  42
BRANCH  41  45
ATOM     45  C   SER A   5      34.442   1.185 -11.686  0.00  0.00     0.569 C 
ATOM     46  O   SER A   5      33.480   0.703 -11.086  0.00  0.00    -0.570 OA
ATOM     47  N   TRP A   6      35.495   0.429 -12.140  0.00  0.00    -0.730 N 
ATOM     48  HN  TRP A   6      36.352   0.869 -12.454  0.00  0.00     0.370 HD
BRANCH  47  49
ATOM     49  CA  TRP A   6      35.534  -1.020 -11.949  0.00  0.00     0.361 C 
BRANCH  49  50
ATOM     50  CB  TRP A   6      34.889  -1.782 -13.117  0.00  0.00     0.181 C 
BRANCH  50  51
ATOM     51  CG  TRP A   6      34.123  -3.007 -12.708  0.00  0.00    -0.181 A 
ATOM     52  CD1 TRP A   6      34.670  -4.251 -12.448  0.00  0.00    -0.152 A 
ATOM     53  NE1 TRP A   6      33.657  -5.106 -12.112  0.00  0.00     0.033 N 
ATOM     54  CE2 TRP A   6      32.449  -4.451 -12.149  0.00  0.00    -0.152 A 
ATOM     55  HE1 TRP A   6      33.771  -6.080 -11.868  0.00  0.00     0.270 HD
ATOM     56  CD2 TRP A   6      32.709  -3.129 -12.511  0.00  0.00     0.000 A 
ATOM     57  CZ2 TRP A   6      31.160  -4.930 -11.888  0.00  0.00     0.000 A 
ATOM     58  CE3 TRP A   6      31.618  -2.241 -12.615  0.00  0.00     0.000 A 
ATOM     59  CZ3 TRP A   6      30.321  -2.704 -12.362  0.00  0.00     0.000 A 
ATOM     60  CH2 TRP A   6      30.099  -4.030 -12.004  0.00  0.00     0.000 A 
ENDBRANCH  50  51
ENDBRANCH  49  50
BRANCH  49  61
ATOM     61  C   TRP A   6      37.010  -1.429 -11.841  0.00  0.00     0.569 C 
ATOM     62  O   TRP A   6      37.396  -2.326 -11.091  0.00  0.00    -0.570 OA
ATOM     63  N   SER A   7      37.875  -0.693 -12.612  0.00  0.00    -0.730 N 
ATOM     64  HN  SER A   7      37.553   0.143 -13.099  0.00  0.00     0.370 HD
BRANCH  63  65
ATOM     65  CA  SER A   7      39.330  -0.858 -12.532  0.00  0.00     0.361 C 
BRANCH  65  66
ATOM     66  CB  SER A   7      39.993  -0.728 -13.907  0.00  0.00     0.280 C 
BRANCH  66  67
ATOM     67  OG  SER A   7      39.710   0.536 -14.507  0.00  0.00    -0.680 OA
ATOM     68  HG  SER A   7      38.880   0.853 -14.104  0.00  0.00     0.400 HD
ENDBRANCH  66  67
ENDBRANCH  65  66
BRANCH  65  69
ATOM     69  C   SER A   7      39.840   0.181 -11.517  0.00  0.00     0.569 C 
ATOM     70  O   SER A   7      40.746  -0.071 -10.721  0.00  0.00    -0.570 OA
ATOM     71  N   NHH A   8      39.319   1.440 -11.575  0.00  0.00    -0.800 N 
ATOM     72  HN1 NHH A   8      38.390   1.609 -11.934  0.00  0.00     0.370 HD
ATOM     73  HN2 NHH A   8      39.623   2.062 -10.833  0.00  0.00     0.370 HD
ENDBRANCH  65  69
ENDBRANCH  63  65
ENDBRANCH  49  61
ENDBRANCH  47  49
ENDBRANCH  41  45
ENDBRANCH   3  41
TORSDOF 24
ENDMDL
MODEL 6
REMARK VINA RESULT:      -9.8      2.736      9.763
REMARK  24 active torsions:
REMARK  status: ('A' for Active; 'I' for Inactive)
REMARK    1  A    between atoms: CA_7  and  N_1 
REMARK       I    between atoms: C_3  and  N_1 
REMARK    2  A    between atoms: CA_2  and  N_6 
REMARK    3  A    between atoms: CA_2  and  C_3 
REMARK    4  A    between atoms: CA_7  and  C_11 
REMARK       I    between atoms: C_11  and  N_15 
REMARK    5  A    between atoms: CA_16  and  N_15 
REMARK    6  A    between atoms: CA_16  and  CB_19 
REMARK    7  A    between atoms: CA_16  and  C_17 
REMARK       I    between atoms: C_17  and  N_27 
REMARK    8  A    between atoms: CB_19  and  CG_20 
REMARK    9  A    between atoms: CA_28  and  N_27 
REMARK   10  A    between atoms: CA_28  and  CB_31 
REMARK   11  A    between atoms: CA_28  and  C_29 
REMARK       I    between atoms: C_29  and  N_39 
REMARK   12  A    between atoms: CB_31  and  CG_32 
REMARK   13  A    between atoms: CA_40  and  N_39 
REMARK   14  A    between atoms: CA_40  and  CB_43 
REMARK   15  A    between atoms: CA_40  and  C_41 
REMARK       I    between atoms: C_41  and  N_47 
REMARK   16  A    between atoms: CB_43  and  OG_44 
REMARK   17  A    between atoms: CA_48  and  N_47 
REMARK   18  A    between atoms: CA_48  and  CB_51 
REMARK   19  A    between atoms: CA_48  and  C_49 
REMARK       I    between atoms: C_49  and  N_63 
REMARK   20  A    between atoms: CB_51  and  CG_52 
REMARK   21  A    between atoms: CA_64  and  N_63 
REMARK   22  A    between atoms: CA_64  and  CB_67 
REMARK   23  A    between atoms: CA_64  and  C_65 
REMARK       I    between atoms: C_65  and  N_71 
REMARK   24  A    between atoms: CB_67  and  OG_68 
ROOT
ATOM      1  C   HIS A   4      33.056   2.893 -12.293  0.00  0.00     0.569 C 
ATOM      2  O   HIS A   4      33.059   3.749 -13.176  0.00  0.00    -0.570 OA
ATOM      3  N   SER A   5      34.208   2.329 -11.807  0.00  0.00    -0.730 N 
ATOM      4  HN  SER A   5      34.164   1.523 -11.181  0.00  0.00     0.370 HD
ENDROOT
BRANCH   1   5
ATOM      5  CA  HIS A   4      31.760   2.363 -11.658  0.00  0.00     0.361 C 
BRANCH   5   6
ATOM      6  N   HIS A   4      31.029   3.511 -11.126  0.00  0.00    -0.730 N 
ATOM      7  HN  HIS A   4      30.641   4.143 -11.827  0.00  0.00     0.370 HD
ATOM      8  C   PHE A   3      31.148   3.941  -9.828  0.00  0.00     0.569 C 
ATOM      9  O   PHE A   3      31.714   3.287  -8.948  0.00  0.00    -0.570 OA
BRANCH   8  10
ATOM     10  CA  PHE A   3      30.533   5.325  -9.538  0.00  0.00     0.361 C 
BRANCH  10  11
ATOM     11  N   PHE A   3      29.429   5.499 -10.490  0.00  0.00    -0.730 N 
ATOM     12  HN  PHE A   3      28.608   4.922 -10.332  0.00  0.00     0.370 HD
ATOM     13  C   ALA A   2      29.471   6.412 -11.508  0.00  0.00     0.569 C 
ATOM     14  O   ALA A   2      30.429   7.165 -11.699  0.00  0.00    -0.570 OA
BRANCH  13  15
ATOM     15  CA  ALA A   2      28.227   6.462 -12.413  0.00  0.00     0.361 C 
ATOM     16  CB  ALA A   2      27.230   7.506 -11.928  0.00  0.00     0.000 C 
BRANCH  15  17
ATOM     17  N   ALA A   2      27.637   5.119 -12.389  0.00  0.00    -0.730 N 
ATOM     18  HN  ALA A   2      27.535   4.725 -11.453  0.00  0.00     0.370 HD
ATOM     19  C   ALA A   1      27.433   4.379 -13.516  0.00  0.00     0.569 C 
ATOM     20  O   ALA A   1      27.648   4.791 -14.656  0.00  0.00    -0.570 OA
BRANCH  19  21
ATOM     21  CA  ALA A   1      26.864   2.963 -13.328  0.00  0.00     0.564 C 
ATOM     22  CB  ALA A   1      26.941   2.487 -11.888  0.00  0.00     0.000 C 
BRANCH  21  23
ATOM     23  N   AMN A   0      27.658   2.008 -14.179  0.00  0.00    -0.853 N 
ATOM     24  HN2 AMN A   0      27.492   1.019 -13.966  0.00  0.00     0.450 HD
ATOM     25  HN1 AMN A   0      28.663   2.217 -14.099  0.00  0.00     0.450 HD
ATOM     26  HN3 AMN A   0      27.438   2.185 -15.171  0.00  0.00     0.450 HD
ENDBRANCH  21  23
ENDBRANCH  19  21
ENDBRANCH  15  17
ENDBRANCH  13  15
ENDBRANCH  10  11
BRANCH  10  27
ATOM     27  CB  PHE A   3      30.027   5.407  -8.086  0.00  0.00     0.143 C 
BRANCH  27  28
ATOM     28  CG  PHE A   3      30.703   6.475  -7.261  0.00  0.00    -0.143 A 
ATOM     29  CD1 PHE A   3      30.136   6.904  -6.052  0.00  0.00     0.000 A 
ATOM     30  CE1 PHE A   3      30.788   7.851  -5.262  0.00  0.00     0.000 A 
ATOM     31  CZ  PHE A   3      32.010   8.377  -5.672  0.00  0.00     0.000 A 
ATOM     32  CE2 PHE A   3      32.576   7.968  -6.879  0.00  0.00     0.000 A 
ATOM     33  CD2 PHE A   3      31.925   7.024  -7.673  0.00  0.00     0.000 A 
ENDBRANCH  27  28
ENDBRANCH  10  27
ENDBRANCH   8  10
ENDBRANCH   5   6
BRANCH   5  34
ATOM     34  CB  HIS A   4      30.955   1.567 -12.703  0.00  0.00     0.180 C 
BRANCH  34  35
ATOM     35  CG  HIS A   4      30.184   0.455 -12.080  0.00  0.00    -0.332 A 
ATOM     36  ND1 HIS A   4      29.820  -0.673 -12.775  0.00  0.00     0.033 N 
ATOM     37  CE1 HIS A   4      29.125  -1.477 -11.919  0.00  0.00     0.187 A 
ATOM     38  HD1 HIS A   4      30.000  -0.847 -13.761  0.00  0.00     0.270 HD
ATOM     39  NE2 HIS A   4      29.027  -0.939 -10.726  0.00  0.00    -0.565 NA
ATOM     40  CD2 HIS A   4      29.681   0.264 -10.812  0.00  0.00     0.227 A 
ENDBRANCH  34  35
ENDBRANCH   5  34
ENDBRANCH   1   5
BRANCH   3  41
ATOM     41  CA  SER A   5      35.514   2.588 -12.416  0.00  0.00     0.361 C 
BRANCH  41  42
ATOM     42  CB  SER A   5      36.491   3.238 -11.429  0.00  0.00     0.280 C 
BRANCH  42  43
ATOM     43  OG  SER A   5      37.830   2.785 -11.637  0.00  0.00    -0.680 OA
ATOM     44  HG  SER A   5      38.334   3.068 -10.852  0.00  0.00     0.400 HD
ENDBRANCH  42  43
ENDBRANCH  41  42
BRANCH  41  45
ATOM     45  C   SER A   5      36.040   1.245 -12.942  0.00  0.00     0.569 C 
ATOM     46  O   SER A   5      36.591   1.156 -14.041  0.00  0.00    -0.570 OA
ATOM     47  N   TRP A   6      35.897   0.178 -12.089  0.00  0.00    -0.730 N 
ATOM     48  HN  TRP A   6      35.278   0.234 -11.288  0.00  0.00     0.370 HD
BRANCH  47  49
ATOM     49  CA  TRP A   6      36.409  -1.148 -12.432  0.00  0.00     0.361 C 
BRANCH  49  50
ATOM     50  CB  TRP A   6      37.149  -1.810 -11.259  0.00  0.00     0.181 C 
BRANCH  50  51
ATOM     51  CG  TRP A   6      38.350  -1.050 -10.777  0.00  0.00    -0.181 A 
ATOM     52  CD1 TRP A   6      39.641  -1.197 -11.252  0.00  0.00    -0.152 A 
ATOM     53  NE1 TRP A   6      40.454  -0.338 -10.564  0.00  0.00     0.033 N 
ATOM     54  CE2 TRP A   6      39.724   0.372  -9.641  0.00  0.00    -0.152 A 
ATOM     55  HE1 TRP A   6      41.449  -0.233 -10.710  0.00  0.00     0.270 HD
ATOM     56  CD2 TRP A   6      38.398  -0.046  -9.756  0.00  0.00     0.000 A 
ATOM     57  CZ2 TRP A   6      40.140   1.344  -8.724  0.00  0.00     0.000 A 
ATOM     58  CE3 TRP A   6      37.438   0.545  -8.908  0.00  0.00     0.000 A 
ATOM     59  CZ3 TRP A   6      37.837   1.516  -7.982  0.00  0.00     0.000 A 
ATOM     60  CH2 TRP A   6      39.169   1.908  -7.894  0.00  0.00     0.000 A 
ENDBRANCH  50  51
ENDBRANCH  49  50
BRANCH  49  61
ATOM     61  C   TRP A   6      35.204  -2.020 -12.817  0.00  0.00     0.569 C 
ATOM     62  O   TRP A   6      34.831  -2.156 -13.982  0.00  0.00    -0.570 OA
ATOM     63  N   SER A   7      34.547  -2.602 -11.762  0.00  0.00    -0.730 N 
ATOM     64  HN  SER A   7      34.777  -2.345 -10.802  0.00  0.00     0.370 HD
BRANCH  63  65
ATOM     65  CA  SER A   7      33.300  -3.355 -11.935  0.00  0.00     0.361 C 
BRANCH  65  66
ATOM     66  CB  SER A   7      33.549  -4.866 -11.961  0.00  0.00     0.280 C 
BRANCH  66  67
ATOM     67  OG  SER A   7      32.368  -5.585 -12.315  0.00  0.00    -0.680 OA
ATOM     68  HG  SER A   7      32.132  -6.127 -11.539  0.00  0.00     0.400 HD
ENDBRANCH  66  67
ENDBRANCH  65  66
BRANCH  65  69
ATOM     69  C   SER A   7      32.357  -2.919 -10.799  0.00  0.00     0.569 C 
ATOM     70  O   SER A   7      31.492  -3.669 -10.341  0.00  0.00    -0.570 OA
ATOM     71  N   NHH A   8      32.557  -1.693 -10.237  0.00  0.00    -0.800 N 
ATOM     72  HN1 NHH A   8      32.980  -0.938 -10.758  0.00  0.00     0.370 HD
ATOM     73  HN2 NHH A   8      31.859  -1.418  -9.555  0.00  0.00     0.370 HD
ENDBRANCH  65  69
ENDBRANCH  63  65
ENDBRANCH  49  61
ENDBRANCH  47  49
ENDBRANCH  41  45
ENDBRANCH   3  41
TORSDOF 24
ENDMDL
MODEL 7
REMARK VINA RESULT:      -9.8      2.426     10.111
REMARK  24 active torsions:
REMARK  status: ('A' for Active; 'I' for Inactive)
REMARK    1  A    between atoms: CA_7  and  N_1 
REMARK       I    between atoms: C_3  and  N_1 
REMARK    2  A    between atoms: CA_2  and  N_6 
REMARK    3  A    between atoms: CA_2  and  C_3 
REMARK    4  A    between atoms: CA_7  and  C_11 
REMARK       I    between atoms: C_11  and  N_15 
REMARK    5  A    between atoms: CA_16  and  N_15 
REMARK    6  A    between atoms: CA_16  and  CB_19 
REMARK    7  A    between atoms: CA_16  and  C_17 
REMARK       I    between atoms: C_17  and  N_27 
REMARK    8  A    between atoms: CB_19  and  CG_20 
REMARK    9  A    between atoms: CA_28  and  N_27 
REMARK   10  A    between atoms: CA_28  and  CB_31 
REMARK   11  A    between atoms: CA_28  and  C_29 
REMARK       I    between atoms: C_29  and  N_39 
REMARK   12  A    between atoms: CB_31  and  CG_32 
REMARK   13  A    between atoms: CA_40  and  N_39 
REMARK   14  A    between atoms: CA_40  and  CB_43 
REMARK   15  A    between atoms: CA_40  and  C_41 
REMARK       I    between atoms: C_41  and  N_47 
REMARK   16  A    between atoms: CB_43  and  OG_44 
REMARK   17  A    between atoms: CA_48  and  N_47 
REMARK   18  A    between atoms: CA_48  and  CB_51 
REMARK   19  A    between atoms: CA_48  and  C_49 
REMARK       I    between atoms: C_49  and  N_63 
REMARK   20  A    between atoms: CB_51  and  CG_52 
REMARK   21  A    between atoms: CA_64  and  N_63 
REMARK   22  A    between atoms: CA_64  and  CB_67 
REMARK   23  A    between atoms: CA_64  and  C_65 
REMARK       I    between atoms: C_65  and  N_71 
REMARK   24  A    between atoms: CB_67  and  OG_68 
ROOT
ATOM      1  C   HIS A   4      32.626   2.854 -11.998  0.00  0.00     0.569 C 
ATOM      2  O   HIS A   4      32.632   3.993 -12.461  0.00  0.00    -0.570 OA
ATOM      3  N   SER A   5      33.772   2.116 -11.843  0.00  0.00    -0.730 N 
ATOM      4  HN  SER A   5      33.719   1.127 -11.592  0.00  0.00     0.370 HD
ENDROOT
BRANCH   1   5
ATOM      5  CA  HIS A   4      31.335   2.143 -11.561  0.00  0.00     0.361 C 
BRANCH   5   6
ATOM      6  N   HIS A   4      30.261   3.133 -11.578  0.00  0.00    -0.730 N 
ATOM      7  HN  HIS A   4      30.347   3.858 -12.290  0.00  0.00     0.370 HD
ATOM      8  C   PHE A   3      29.402   3.327 -10.524  0.00  0.00     0.569 C 
ATOM      9  O   PHE A   3      29.327   2.557  -9.563  0.00  0.00    -0.570 OA
BRANCH   8  10
ATOM     10  CA  PHE A   3      28.534   4.599 -10.614  0.00  0.00     0.361 C 
BRANCH  10  11
ATOM     11  N   PHE A   3      27.502   4.330 -11.621  0.00  0.00    -0.730 N 
ATOM     12  HN  PHE A   3      26.819   3.618 -11.382  0.00  0.00     0.370 HD
ATOM     13  C   ALA A   2      27.425   5.023 -12.799  0.00  0.00     0.569 C 
ATOM     14  O   ALA A   2      28.205   5.929 -13.101  0.00  0.00    -0.570 OA
BRANCH  13  15
ATOM     15  CA  ALA A   2      26.279   4.612 -13.742  0.00  0.00     0.361 C 
ATOM     16  CB  ALA A   2      25.475   5.823 -14.198  0.00  0.00     0.000 C 
BRANCH  15  17
ATOM     17  N   ALA A   2      25.437   3.672 -12.994  0.00  0.00    -0.730 N 
ATOM     18  HN  ALA A   2      25.141   4.015 -12.079  0.00  0.00     0.370 HD
ATOM     19  C   ALA A   1      25.237   2.382 -13.387  0.00  0.00     0.569 C 
ATOM     20  O   ALA A   1      25.672   1.909 -14.438  0.00  0.00    -0.570 OA
BRANCH  19  21
ATOM     21  CA  ALA A   1      24.379   1.496 -12.468  0.00  0.00     0.564 C 
ATOM     22  CB  ALA A   1      24.790   1.596 -11.009  0.00  0.00     0.000 C 
BRANCH  21  23
ATOM     23  N   AMN A   0      24.534   0.063 -12.900  0.00  0.00    -0.853 N 
ATOM     24  HN2 AMN A   0      24.793  -0.578 -12.143  0.00  0.00     0.450 HD
ATOM     25  HN1 AMN A   0      25.224  -0.003 -13.662  0.00  0.00     0.450 HD
ATOM     26  HN3 AMN A   0      23.650  -0.253 -13.328  0.00  0.00     0.450 HD
ENDBRANCH  21  23
ENDBRANCH  19  21
ENDBRANCH  15  17
ENDBRANCH  13  15
ENDBRANCH  10  11
BRANCH  10  27
ATOM     27  CB  PHE A   3      27.902   4.926  -9.249  0.00  0.00     0.143 C 
BRANCH  27  28
ATOM     28  CG  PHE A   3      28.670   5.949  -8.447  0.00  0.00    -0.143 A 
ATOM     29  CD1 PHE A   3      28.113   7.209  -8.183  0.00  0.00     0.000 A 
ATOM     30  CE1 PHE A   3      28.798   8.133  -7.395  0.00  0.00     0.000 A 
ATOM     31  CZ  PHE A   3      30.044   7.808  -6.865  0.00  0.00     0.000 A 
ATOM     32  CE2 PHE A   3      30.613   6.564  -7.132  0.00  0.00     0.000 A 
ATOM     33  CD2 PHE A   3      29.931   5.638  -7.923  0.00  0.00     0.000 A 
ENDBRANCH  27  28
ENDBRANCH  10  27
ENDBRANCH   8  10
ENDBRANCH   5   6
BRANCH   5  34
ATOM     34  CB  HIS A   4      31.064   0.942 -12.487  0.00  0.00     0.180 C 
BRANCH  34  35
ATOM     35  CG  HIS A   4      29.692   0.393 -12.294  0.00  0.00    -0.332 A 
ATOM     36  ND1 HIS A   4      29.281  -0.168 -11.109  0.00  0.00     0.033 N 
ATOM     37  CE1 HIS A   4      27.989  -0.574 -11.273  0.00  0.00     0.187 A 
ATOM     38  HD1 HIS A   4      29.857  -0.294 -10.280  0.00  0.00     0.270 HD
ATOM     39  NE2 HIS A   4      27.550  -0.305 -12.480  0.00  0.00    -0.565 NA
ATOM     40  CD2 HIS A   4      28.599   0.295 -13.126  0.00  0.00     0.227 A 
ENDBRANCH  34  35
ENDBRANCH   5  34
ENDBRANCH   1   5
BRANCH   3  41
ATOM     41  CA  SER A   5      35.063   2.568 -12.364  0.00  0.00     0.361 C 
BRANCH  41  42
ATOM     42  CB  SER A   5      35.843   3.396 -11.336  0.00  0.00     0.280 C 
BRANCH  42  43
ATOM     43  OG  SER A   5      35.702   2.868 -10.017  0.00  0.00    -0.680 OA
ATOM     44  HG  SER A   5      35.665   3.639  -9.421  0.00  0.00     0.400 HD
ENDBRANCH  42  43
ENDBRANCH  41  42
BRANCH  41  45
ATOM     45  C   SER A   5      35.838   1.315 -12.797  0.00  0.00     0.569 C 
ATOM     46  O   SER A   5      36.576   1.324 -13.783  0.00  0.00    -0.570 OA
ATOM     47  N   TRP A   6      35.686   0.216 -11.988  0.00  0.00    -0.730 N 
ATOM     48  HN  TRP A   6      34.935   0.173 -11.308  0.00  0.00     0.370 HD
BRANCH  47  49
ATOM     49  CA  TRP A   6      36.412  -1.027 -12.242  0.00  0.00     0.361 C 
BRANCH  49  50
ATOM     50  CB  TRP A   6      37.124  -1.556 -10.987  0.00  0.00     0.181 C 
BRANCH  50  51
ATOM     51  CG  TRP A   6      38.506  -1.007 -10.783  0.00  0.00    -0.181 A 
ATOM     52  CD1 TRP A   6      39.643  -1.414 -11.457  0.00  0.00    -0.152 A 
ATOM     53  NE1 TRP A   6      40.704  -0.687 -10.992  0.00  0.00     0.033 N 
ATOM     54  CE2 TRP A   6      40.290   0.192 -10.020  0.00  0.00    -0.152 A 
ATOM     55  HE1 TRP A   6      41.659  -0.774 -11.314  0.00  0.00     0.270 HD
ATOM     56  CD2 TRP A   6      38.913   0.021  -9.872  0.00  0.00     0.000 A 
ATOM     57  CZ2 TRP A   6      41.028   1.116  -9.272  0.00  0.00     0.000 A 
ATOM     58  CE3 TRP A   6      38.241   0.822  -8.924  0.00  0.00     0.000 A 
ATOM     59  CZ3 TRP A   6      38.965   1.748  -8.163  0.00  0.00     0.000 A 
ATOM     60  CH2 TRP A   6      40.338   1.892  -8.337  0.00  0.00     0.000 A 
ENDBRANCH  50  51
ENDBRANCH  49  50
BRANCH  49  61
ATOM     61  C   TRP A   6      35.387  -2.071 -12.711  0.00  0.00     0.569 C 
ATOM     62  O   TRP A   6      35.431  -2.587 -13.827  0.00  0.00    -0.570 OA
ATOM     63  N   SER A   7      34.393  -2.354 -11.808  0.00  0.00    -0.730 N 
ATOM     64  HN  SER A   7      34.288  -1.799 -10.960  0.00  0.00     0.370 HD
BRANCH  63  65
ATOM     65  CA  SER A   7      33.259  -3.224 -12.140  0.00  0.00     0.361 C 
BRANCH  65  66
ATOM     66  CB  SER A   7      33.505  -4.670 -11.697  0.00  0.00     0.280 C 
BRANCH  66  67
ATOM     67  OG  SER A   7      34.716  -5.187 -12.246  0.00  0.00    -0.680 OA
ATOM     68  HG  SER A   7      34.805  -6.098 -11.907  0.00  0.00     0.400 HD
ENDBRANCH  66  67
ENDBRANCH  65  66
BRANCH  65  69
ATOM     69  C   SER A   7      32.013  -2.598 -11.487  0.00  0.00     0.569 C 
ATOM     70  O   SER A   7      30.883  -2.747 -11.956  0.00  0.00    -0.570 OA
ATOM     71  N   NHH A   8      32.175  -1.933 -10.308  0.00  0.00    -0.800 N 
ATOM     72  HN1 NHH A   8      33.053  -1.495 -10.067  0.00  0.00     0.370 HD
ATOM     73  HN2 NHH A   8      31.343  -1.466  -9.963  0.00  0.00     0.370 HD
ENDBRANCH  65  69
ENDBRANCH  63  65
ENDBRANCH  49  61
ENDBRANCH  47  49
ENDBRANCH  41  45
ENDBRANCH   3  41
TORSDOF 24
ENDMDL
MODEL 8
REMARK VINA RESULT:      -9.8      2.981     10.726
REMARK  24 active torsions:
REMARK  status: ('A' for Active; 'I' for Inactive)
REMARK    1  A    between atoms: CA_7  and  N_1 
REMARK       I    between atoms: C_3  and  N_1 
REMARK    2  A    between atoms: CA_2  and  N_6 
REMARK    3  A    between atoms: CA_2  and  C_3 
REMARK    4  A    between atoms: CA_7  and  C_11 
REMARK       I    between atoms: C_11  and  N_15 
REMARK    5  A    between atoms: CA_16  and  N_15 
REMARK    6  A    between atoms: CA_16  and  CB_19 
REMARK    7  A    between atoms: CA_16  and  C_17 
REMARK       I    between atoms: C_17  and  N_27 
REMARK    8  A    between atoms: CB_19  and  CG_20 
REMARK    9  A    between atoms: CA_28  and  N_27 
REMARK   10  A    between atoms: CA_28  and  CB_31 
REMARK   11  A    between atoms: CA_28  and  C_29 
REMARK       I    between atoms: C_29  and  N_39 
REMARK   12  A    between atoms: CB_31  and  CG_32 
REMARK   13  A    between atoms: CA_40  and  N_39 
REMARK   14  A    between atoms: CA_40  and  CB_43 
REMARK   15  A    between atoms: CA_40  and  C_41 
REMARK       I    between atoms: C_41  and  N_47 
REMARK   16  A    between atoms: CB_43  and  OG_44 
REMARK   17  A    between atoms: CA_48  and  N_47 
REMARK   18  A    between atoms: CA_48  and  CB_51 
REMARK   19  A    between atoms: CA_48  and  C_49 
REMARK       I    between atoms: C_49  and  N_63 
REMARK   20  A    between atoms: CB_51  and  CG_52 
REMARK   21  A    between atoms: CA_64  and  N_63 
REMARK   22  A    between atoms: CA_64  and  CB_67 
REMARK   23  A    between atoms: CA_64  and  C_65 
REMARK       I    between atoms: C_65  and  N_71 
REMARK   24  A    between atoms: CB_67  and  OG_68 
ROOT
ATOM      1  C   HIS A   4      31.935   3.339 -12.811  0.00  0.00     0.569 C 
ATOM      2  O   HIS A   4      32.546   4.098 -13.562  0.00  0.00    -0.570 OA
ATOM      3  N   SER A   5      32.570   2.425 -12.010  0.00  0.00    -0.730 N 
ATOM      4  HN  SER A   5      32.032   1.716 -11.508  0.00  0.00     0.370 HD
ENDROOT
BRANCH   1   5
ATOM      5  CA  HIS A   4      30.401   3.333 -12.708  0.00  0.00     0.361 C 
BRANCH   5   6
ATOM      6  N   HIS A   4      30.017   4.414 -11.803  0.00  0.00    -0.730 N 
ATOM      7  HN  HIS A   4      30.211   5.356 -12.143  0.00  0.00     0.370 HD
ATOM      8  C   PHE A   3      29.764   4.221 -10.468  0.00  0.00     0.569 C 
ATOM      9  O   PHE A   3      29.638   3.105  -9.958  0.00  0.00    -0.570 OA
BRANCH   8  10
ATOM     10  CA  PHE A   3      29.662   5.512  -9.629  0.00  0.00     0.361 C 
BRANCH  10  11
ATOM     11  N   PHE A   3      28.299   6.023  -9.813  0.00  0.00    -0.730 N 
ATOM     12  HN  PHE A   3      27.599   5.673  -9.165  0.00  0.00     0.370 HD
ATOM     13  C   ALA A   2      27.983   6.952 -10.767  0.00  0.00     0.569 C 
ATOM     14  O   ALA A   2      28.816   7.438 -11.536  0.00  0.00    -0.570 OA
BRANCH  13  15
ATOM     15  CA  ALA A   2      26.505   7.378 -10.822  0.00  0.00     0.361 C 
ATOM     16  CB  ALA A   2      25.991   7.776  -9.445  0.00  0.00     0.000 C 
BRANCH  15  17
ATOM     17  N   ALA A   2      25.758   6.232 -11.352  0.00  0.00    -0.730 N 
ATOM     18  HN  ALA A   2      25.987   5.343 -10.907  0.00  0.00     0.370 HD
ATOM     19  C   ALA A   1      24.982   6.307 -12.471  0.00  0.00     0.569 C 
ATOM     20  O   ALA A   1      24.772   7.349 -13.092  0.00  0.00    -0.570 OA
BRANCH  19  21
ATOM     21  CA  ALA A   1      24.308   5.007 -12.942  0.00  0.00     0.564 C 
ATOM     22  CB  ALA A   1      24.924   3.768 -12.316  0.00  0.00     0.000 C 
BRANCH  21  23
ATOM     23  N   AMN A   0      24.459   4.901 -14.436  0.00  0.00    -0.853 N 
ATOM     24  HN2 AMN A   0      24.648   3.951 -14.772  0.00  0.00     0.450 HD
ATOM     25  HN1 AMN A   0      25.201   5.538 -14.761  0.00  0.00     0.450 HD
ATOM     26  HN3 AMN A   0      23.602   5.258 -14.883  0.00  0.00     0.450 HD
ENDBRANCH  21  23
ENDBRANCH  19  21
ENDBRANCH  15  17
ENDBRANCH  13  15
ENDBRANCH  10  11
BRANCH  10  27
ATOM     27  CB  PHE A   3      29.947   5.222  -8.143  0.00  0.00     0.143 C 
BRANCH  27  28
ATOM     28  CG  PHE A   3      30.711   6.318  -7.441  0.00  0.00    -0.143 A 
ATOM     29  CD1 PHE A   3      30.265   6.818  -6.209  0.00  0.00     0.000 A 
ATOM     30  CE1 PHE A   3      31.000   7.791  -5.532  0.00  0.00     0.000 A 
ATOM     31  CZ  PHE A   3      32.185   8.274  -6.080  0.00  0.00     0.000 A 
ATOM     32  CE2 PHE A   3      32.630   7.795  -7.311  0.00  0.00     0.000 A 
ATOM     33  CD2 PHE A   3      31.896   6.823  -7.992  0.00  0.00     0.000 A 
ENDBRANCH  27  28
ENDBRANCH  10  27
ENDBRANCH   8  10
ENDBRANCH   5   6
BRANCH   5  34
ATOM     34  CB  HIS A   4      29.784   3.474 -14.113  0.00  0.00     0.180 C 
BRANCH  34  35
ATOM     35  CG  HIS A   4      29.104   2.221 -14.547  0.00  0.00    -0.332 A 
ATOM     36  ND1 HIS A   4      28.294   2.166 -15.656  0.00  0.00     0.033 N 
ATOM     37  CE1 HIS A   4      27.829   0.888 -15.762  0.00  0.00     0.187 A 
ATOM     38  HD1 HIS A   4      28.054   2.952 -16.256  0.00  0.00     0.270 HD
ATOM     39  NE2 HIS A   4      28.292   0.126 -14.799  0.00  0.00    -0.565 NA
ATOM     40  CD2 HIS A   4      29.086   0.943 -14.035  0.00  0.00     0.227 A 
ENDBRANCH  34  35
ENDBRANCH   5  34
ENDBRANCH   1   5
BRANCH   3  41
ATOM     41  CA  SER A   5      34.009   2.176 -12.107  0.00  0.00     0.361 C 
BRANCH  41  42
ATOM     42  CB  SER A   5      34.823   3.145 -11.243  0.00  0.00     0.280 C 
BRANCH  42  43
ATOM     43  OG  SER A   5      34.046   3.672 -10.166  0.00  0.00    -0.680 OA
ATOM     44  HG  SER A   5      33.514   4.395 -10.547  0.00  0.00     0.400 HD
ENDBRANCH  42  43
ENDBRANCH  41  42
BRANCH  41  45
ATOM     45  C   SER A   5      34.241   0.713 -11.701  0.00  0.00     0.569 C 
ATOM     46  O   SER A   5      33.472   0.128 -10.937  0.00  0.00    -0.570 OA
ATOM     47  N   TRP A   6      35.326   0.102 -12.282  0.00  0.00    -0.730 N 
ATOM     48  HN  TRP A   6      36.043   0.650 -12.745  0.00  0.00     0.370 HD
BRANCH  47  49
ATOM     49  CA  TRP A   6      35.632  -1.306 -12.037  0.00  0.00     0.361 C 
BRANCH  49  50
ATOM     50  CB  TRP A   6      35.118  -2.220 -13.161  0.00  0.00     0.181 C 
BRANCH  50  51
ATOM     51  CG  TRP A   6      34.238  -3.343 -12.691  0.00  0.00    -0.181 A 
ATOM     52  CD1 TRP A   6      34.668  -4.605 -12.325  0.00  0.00    -0.152 A 
ATOM     53  NE1 TRP A   6      33.576  -5.345 -11.962  0.00  0.00     0.033 N 
ATOM     54  CE2 TRP A   6      32.431  -4.595 -12.085  0.00  0.00    -0.152 A 
ATOM     55  HE1 TRP A   6      33.599  -6.304 -11.646  0.00  0.00     0.270 HD
ATOM     56  CD2 TRP A   6      32.814  -3.329 -12.533  0.00  0.00     0.000 A 
ATOM     57  CZ2 TRP A   6      31.099  -4.942 -11.833  0.00  0.00     0.000 A 
ATOM     58  CE3 TRP A   6      31.808  -2.362 -12.735  0.00  0.00     0.000 A 
ATOM     59  CZ3 TRP A   6      30.470  -2.694 -12.492  0.00  0.00     0.000 A 
ATOM     60  CH2 TRP A   6      30.123  -3.966 -12.048  0.00  0.00     0.000 A 
ENDBRANCH  50  51
ENDBRANCH  49  50
BRANCH  49  61
ATOM     61  C   TRP A   6      37.160  -1.436 -11.949  0.00  0.00     0.569 C 
ATOM     62  O   TRP A   6      37.725  -1.967 -10.994  0.00  0.00    -0.570 OA
ATOM     63  N   SER A   7      37.851  -0.876 -12.995  0.00  0.00    -0.730 N 
ATOM     64  HN  SER A   7      37.370  -0.305 -13.689  0.00  0.00     0.370 HD
BRANCH  63  65
ATOM     65  CA  SER A   7      39.316  -0.790 -13.008  0.00  0.00     0.361 C 
BRANCH  65  66
ATOM     66  CB  SER A   7      39.887  -1.055 -14.404  0.00  0.00     0.280 C 
BRANCH  66  67
ATOM     67  OG  SER A   7      41.299  -0.851 -14.439  0.00  0.00    -0.680 OA
ATOM     68  HG  SER A   7      41.672  -1.591 -14.955  0.00  0.00     0.400 HD
ENDBRANCH  66  67
ENDBRANCH  65  66
BRANCH  65  69
ATOM     69  C   SER A   7      39.683   0.601 -12.460  0.00  0.00     0.569 C 
ATOM     70  O   SER A   7      40.189   1.472 -13.171  0.00  0.00    -0.570 OA
ATOM     71  N   NHH A   8      39.352   0.888 -11.169  0.00  0.00    -0.800 N 
ATOM     72  HN1 NHH A   8      39.267   0.160 -10.473  0.00  0.00     0.370 HD
ATOM     73  HN2 NHH A   8      39.691   1.782 -10.830  0.00  0.00     0.370 HD
ENDBRANCH  65  69
ENDBRANCH  63  65
ENDBRANCH  49  61
ENDBRANCH  47  49
ENDBRANCH  41  45
ENDBRANCH   3  41
TORSDOF 24
ENDMDL
MODEL 9
REMARK VINA RESULT:      -9.7      2.461      6.797
REMARK  24 active torsions:
REMARK  status: ('A' for Active; 'I' for Inactive)
REMARK    1  A    between atoms: CA_7  and  N_1 
REMARK       I    between atoms: C_3  and  N_1 
REMARK    2  A    between atoms: CA_2  and  N_6 
REMARK    3  A    between atoms: CA_2  and  C_3 
REMARK    4  A    between atoms: CA_7  and  C_11 
REMARK       I    between atoms: C_11  and  N_15 
REMARK    5  A    between atoms: CA_16  and  N_15 
REMARK    6  A    between atoms: CA_16  and  CB_19 
REMARK    7  A    between atoms: CA_16  and  C_17 
REMARK       I    between atoms: C_17  and  N_27 
REMARK    8  A    between atoms: CB_19  and  CG_20 
REMARK    9  A    between atoms: CA_28  and  N_27 
REMARK   10  A    between atoms: CA_28  and  CB_31 
REMARK   11  A    between atoms: CA_28  and  C_29 
REMARK       I    between atoms: C_29  and  N_39 
REMARK   12  A    between atoms: CB_31  and  CG_32 
REMARK   13  A    between atoms: CA_40  and  N_39 
REMARK   14  A    between atoms: CA_40  and  CB_43 
REMARK   15  A    between atoms: CA_40  and  C_41 
REMARK       I    between atoms: C_41  and  N_47 
REMARK   16  A    between atoms: CB_43  and  OG_44 
REMARK   17  A    between atoms: CA_48  and  N_47 
REMARK   18  A    between atoms: CA_48  and  CB_51 
REMARK   19  A    between atoms: CA_48  and  C_49 
REMARK       I    between atoms: C_49  and  N_63 
REMARK   20  A    between atoms: CB_51  and  CG_52 
REMARK   21  A    between atoms: CA_64  and  N_63 
REMARK   22  A    between atoms: CA_64  and  CB_67 
REMARK   23  A    between atoms: CA_64  and  C_65 
REMARK       I    between atoms: C_65  and  N_71 
REMARK   24  A    between atoms: CB_67  and  OG_68 
ROOT
ATOM      1  C   HIS A   4      31.416   0.063 -11.466  0.00  0.00     0.569 C 
ATOM      2  O   HIS A   4      30.355  -0.331 -11.946  0.00  0.00    -0.570 OA
ATOM      3  N   SER A   5      31.569   1.324 -10.948  0.00  0.00    -0.730 N 
ATOM      4  HN  SER A   5      32.496   1.668 -10.689  0.00  0.00     0.370 HD
ENDROOT
BRANCH   1   5
ATOM      5  CA  HIS A   4      32.678  -0.814 -11.412  0.00  0.00     0.361 C 
BRANCH   5   6
ATOM      6  N   HIS A   4      33.795   0.046 -11.028  0.00  0.00    -0.730 N 
ATOM      7  HN  HIS A   4      33.858   0.261 -10.033  0.00  0.00     0.370 HD
ATOM      8  C   PHE A   3      34.493   0.816 -11.926  0.00  0.00     0.569 C 
ATOM      9  O   PHE A   3      34.378   0.700 -13.149  0.00  0.00    -0.570 OA
BRANCH   8  10
ATOM     10  CA  PHE A   3      35.432   1.865 -11.296  0.00  0.00     0.361 C 
BRANCH  10  11
ATOM     11  N   PHE A   3      36.730   1.207 -11.114  0.00  0.00    -0.730 N 
ATOM     12  HN  PHE A   3      37.126   0.763 -11.938  0.00  0.00     0.370 HD
ATOM     13  C   ALA A   2      37.402   1.219  -9.921  0.00  0.00     0.569 C 
ATOM     14  O   ALA A   2      36.977   1.791  -8.915  0.00  0.00    -0.570 OA
BRANCH  13  15
ATOM     15  CA  ALA A   2      38.752   0.479  -9.906  0.00  0.00     0.361 C 
ATOM     16  CB  ALA A   2      39.832   1.310  -9.227  0.00  0.00     0.000 C 
BRANCH  15  17
ATOM     17  N   ALA A   2      39.097   0.209 -11.306  0.00  0.00    -0.730 N 
ATOM     18  HN  ALA A   2      39.033   1.024 -11.917  0.00  0.00     0.370 HD
ATOM     19  C   ALA A   1      39.285  -1.051 -11.792  0.00  0.00     0.569 C 
ATOM     20  O   ALA A   1      39.263  -2.067 -11.096  0.00  0.00    -0.570 OA
BRANCH  19  21
ATOM     21  CA  ALA A   1      39.581  -1.183 -13.296  0.00  0.00     0.564 C 
ATOM     22  CB  ALA A   1      41.055  -1.405 -13.586  0.00  0.00     0.000 C 
BRANCH  21  23
ATOM     23  N   AMN A   0      39.155   0.086 -13.983  0.00  0.00    -0.853 N 
ATOM     24  HN2 AMN A   0      39.648   0.273 -14.862  0.00  0.00     0.450 HD
ATOM     25  HN1 AMN A   0      39.267   0.888 -13.345  0.00  0.00     0.450 HD
ATOM     26  HN3 AMN A   0      38.140   0.043 -14.163  0.00  0.00     0.450 HD
ENDBRANCH  21  23
ENDBRANCH  19  21
ENDBRANCH  15  17
ENDBRANCH  13  15
ENDBRANCH  10  11
BRANCH  10  27
ATOM     27  CB  PHE A   3      35.562   3.100 -12.207  0.00  0.00     0.143 C 
BRANCH  27  28
ATOM     28  CG  PHE A   3      35.001   4.366 -11.607  0.00  0.00    -0.143 A 
ATOM     29  CD1 PHE A   3      34.142   4.306 -10.499  0.00  0.00     0.000 A 
ATOM     30  CE1 PHE A   3      33.668   5.478  -9.909  0.00  0.00     0.000 A 
ATOM     31  CZ  PHE A   3      34.046   6.717 -10.420  0.00  0.00     0.000 A 
ATOM     32  CE2 PHE A   3      34.888   6.787 -11.528  0.00  0.00     0.000 A 
ATOM     33  CD2 PHE A   3      35.362   5.617 -12.123  0.00  0.00     0.000 A 
ENDBRANCH  27  28
ENDBRANCH  10  27
ENDBRANCH   8  10
ENDBRANCH   5   6
BRANCH   5  34
ATOM     34  CB  HIS A   4      32.456  -1.986 -10.438  0.00  0.00     0.180 C 
BRANCH  34  35
ATOM     35  CG  HIS A   4      32.225  -3.269 -11.159  0.00  0.00    -0.332 A 
ATOM     36  ND1 HIS A   4      33.241  -4.146 -11.453  0.00  0.00     0.033 N 
ATOM     37  CE1 HIS A   4      32.693  -5.203 -12.117  0.00  0.00     0.187 A 
ATOM     38  HD1 HIS A   4      34.228  -4.001 -11.248  0.00  0.00     0.270 HD
ATOM     39  NE2 HIS A   4      31.396  -5.061 -12.262  0.00  0.00    -0.565 NA
ATOM     40  CD2 HIS A   4      31.092  -3.862 -11.671  0.00  0.00     0.227 A 
ENDBRANCH  34  35
ENDBRANCH   5  34
ENDBRANCH   1   5
BRANCH   3  41
ATOM     41  CA  SER A   5      30.527   2.345 -11.073  0.00  0.00     0.361 C 
BRANCH  41  42
ATOM     42  CB  SER A   5      30.638   3.419  -9.984  0.00  0.00     0.280 C 
BRANCH  42  43
ATOM     43  OG  SER A   5      30.139   4.679 -10.434  0.00  0.00    -0.680 OA
ATOM     44  HG  SER A   5      30.371   5.324  -9.740  0.00  0.00     0.400 HD
ENDBRANCH  42  43
ENDBRANCH  41  42
BRANCH  41  45
ATOM     45  C   SER A   5      30.650   2.943 -12.482  0.00  0.00     0.569 C 
ATOM     46  O   SER A   5      31.739   3.028 -13.052  0.00  0.00    -0.570 OA
ATOM     47  N   TRP A   6      29.468   3.326 -13.067  0.00  0.00    -0.730 N 
ATOM     48  HN  TRP A   6      28.624   3.427 -12.514  0.00  0.00     0.370 HD
BRANCH  47  49
ATOM     49  CA  TRP A   6      29.425   3.853 -14.430  0.00  0.00     0.361 C 
BRANCH  49  50
ATOM     50  CB  TRP A   6      28.775   2.871 -15.417  0.00  0.00     0.181 C 
BRANCH  50  51
ATOM     51  CG  TRP A   6      28.097   1.700 -14.768  0.00  0.00    -0.181 A 
ATOM     52  CD1 TRP A   6      28.581   0.405 -14.733  0.00  0.00    -0.152 A 
ATOM     53  NE1 TRP A   6      27.681  -0.374 -14.058  0.00  0.00     0.033 N 
ATOM     54  CE2 TRP A   6      26.609   0.382 -13.649  0.00  0.00    -0.152 A 
ATOM     55  HE1 TRP A   6      27.784  -1.364 -13.880  0.00  0.00     0.270 HD
ATOM     56  CD2 TRP A   6      26.844   1.691 -14.072  0.00  0.00     0.000 A 
ATOM     57  CZ2 TRP A   6      25.462   0.004 -12.942  0.00  0.00     0.000 A 
ATOM     58  CE3 TRP A   6      25.878   2.672 -13.766  0.00  0.00     0.000 A 
ATOM     59  CZ3 TRP A   6      24.723   2.311 -13.063  0.00  0.00     0.000 A 
ATOM     60  CH2 TRP A   6      24.521   0.996 -12.658  0.00  0.00     0.000 A 
ENDBRANCH  50  51
ENDBRANCH  49  50
BRANCH  49  61
ATOM     61  C   TRP A   6      28.599   5.147 -14.397  0.00  0.00     0.569 C 
ATOM     62  O   TRP A   6      28.255   5.740 -15.420  0.00  0.00    -0.570 OA
ATOM     63  N   SER A   7      28.308   5.618 -13.141  0.00  0.00    -0.730 N 
ATOM     64  HN  SER A   7      28.738   5.200 -12.317  0.00  0.00     0.370 HD
BRANCH  63  65
ATOM     65  CA  SER A   7      27.644   6.908 -12.923  0.00  0.00     0.361 C 
BRANCH  65  66
ATOM     66  CB  SER A   7      26.119   6.778 -12.983  0.00  0.00     0.280 C 
BRANCH  66  67
ATOM     67  OG  SER A   7      25.492   8.047 -13.173  0.00  0.00    -0.680 OA
ATOM     68  HG  SER A   7      26.164   8.628 -13.575  0.00  0.00     0.400 HD
ENDBRANCH  66  67
ENDBRANCH  65  66
BRANCH  65  69
ATOM     69  C   SER A   7      28.151   7.445 -11.572  0.00  0.00     0.569 C 
ATOM     70  O   SER A   7      29.317   7.294 -11.203  0.00  0.00    -0.570 OA
ATOM     71  N   NHH A   8      27.290   8.183 -10.814  0.00  0.00    -0.800 N 
ATOM     72  HN1 NHH A   8      26.290   8.055 -10.878  0.00  0.00     0.370 HD
ATOM     73  HN2 NHH A   8      27.642   8.440  -9.898  0.00  0.00     0.370 HD
ENDBRANCH  65  69
ENDBRANCH  63  65
ENDBRANCH  49  61
ENDBRANCH  47  49
ENDBRANCH  41  45
ENDBRANCH   3  41
TORSDOF 24
ENDMDL
