MODEL 1
REMARK VINA RESULT:     -10.9      0.000      0.000
REMARK  21 active torsions:
REMARK  status: ('A' for Active; 'I' for Inactive)
REMARK    1  A    between atoms: CA_2  and  C_3 
REMARK       I    between atoms: C_3  and  N_10 
REMARK    2  A    between atoms: CA_11  and  N_10 
REMARK    3  A    between atoms: CA_11  and  C_12 
REMARK       I    between atoms: C_12  and  N_16 
REMARK    4  A    between atoms: CA_17  and  N_16 
REMARK    5  A    between atoms: CA_17  and  CB_20 
REMARK    6  A    between atoms: CA_17  and  C_18 
REMARK       I    between atoms: C_18  and  N_28 
REMARK    7  A    between atoms: CB_20  and  CG_21 
REMARK    8  A    between atoms: CA_29  and  N_28 
REMARK    9  A    between atoms: CA_29  and  C_30 
REMARK       I    between atoms: C_30  and  N_34 
REMARK   10  A    between atoms: CA_35  and  N_34 
REMARK   11  A    between atoms: CA_35  and  CB_38 
REMARK   12  A    between atoms: CA_35  and  C_36 
REMARK       I    between atoms: C_36  and  N_42 
REMARK   13  A    between atoms: CB_38  and  OG_39 
REMARK   14  A    between atoms: CA_43  and  N_42 
REMARK   15  A    between atoms: CA_43  and  CB_46 
REMARK   16  A    between atoms: CA_43  and  C_44 
REMARK       I    between atoms: C_44  and  N_58 
REMARK   17  A    between atoms: CB_46  and  CG_47 
REMARK   18  A    between atoms: CA_59  and  N_58 
REMARK   19  A    between atoms: CA_59  and  CB_62 
REMARK   20  A    between atoms: CA_59  and  C_60 
REMARK       I    between atoms: C_60  and  N_66 
REMARK   21  A    between atoms: CB_62  and  OG_63 
ROOT
ATOM      1  C   ALA A   4      33.870   3.178 -11.941  0.00  0.00     0.569 C 
ATOM      2  O   ALA A   4      33.517   3.591 -13.046  0.00  0.00    -0.570 OA
ATOM      3  N   SER A   5      33.094   2.328 -11.194  0.00  0.00    -0.730 N 
ATOM      4  HN  SER A   5      33.349   2.103 -10.235  0.00  0.00     0.370 HD
ENDROOT
BRANCH   3   5
ATOM      5  CA  SER A   5      31.762   1.908 -11.638  0.00  0.00     0.361 C 
BRANCH   5   6
ATOM      6  CB  SER A   5      31.563   0.394 -11.474  0.00  0.00     0.280 C 
BRANCH   6   7
ATOM      7  OG  SER A   5      32.805  -0.280 -11.276  0.00  0.00    -0.680 OA
ATOM      8  HG  SER A   5      32.628  -1.020 -10.665  0.00  0.00     0.400 HD
ENDBRANCH   6   7
ENDBRANCH   5   6
BRANCH   5   9
ATOM      9  C   SER A   5      30.730   2.707 -10.822  0.00  0.00     0.569 C 
ATOM     10  O   SER A   5      30.953   3.050  -9.656  0.00  0.00    -0.570 OA
ATOM     11  N   TRP A   6      29.552   3.013 -11.463  0.00  0.00    -0.730 N 
ATOM     12  HN  TRP A   6      29.291   2.495 -12.294  0.00  0.00     0.370 HD
BRANCH  11  13
ATOM     13  CA  TRP A   6      28.470   3.718 -10.765  0.00  0.00     0.361 C 
BRANCH  13  14
ATOM     14  CB  TRP A   6      28.487   5.226 -11.042  0.00  0.00     0.181 C 
BRANCH  14  15
ATOM     15  CG  TRP A   6      29.383   5.599 -12.186  0.00  0.00    -0.181 A 
ATOM     16  CD1 TRP A   6      30.621   6.207 -12.093  0.00  0.00    -0.152 A 
ATOM     17  NE1 TRP A   6      31.111   6.378 -13.360  0.00  0.00     0.033 N 
ATOM     18  CE2 TRP A   6      30.218   5.895 -14.286  0.00  0.00    -0.152 A 
ATOM     19  HE1 TRP A   6      32.002   6.795 -13.590  0.00  0.00     0.270 HD
ATOM     20  CD2 TRP A   6      29.125   5.391 -13.579  0.00  0.00     0.000 A 
ATOM     21  CZ2 TRP A   6      30.298   5.861 -15.684  0.00  0.00     0.000 A 
ATOM     22  CE3 TRP A   6      28.060   4.822 -14.308  0.00  0.00     0.000 A 
ATOM     23  CZ3 TRP A   6      28.123   4.782 -15.705  0.00  0.00     0.000 A 
ATOM     24  CH2 TRP A   6      29.227   5.295 -16.381  0.00  0.00     0.000 A 
ENDBRANCH  14  15
ENDBRANCH  13  14
BRANCH  13  25
ATOM     25  C   TRP A   6      27.155   3.121 -11.293  0.00  0.00     0.569 C 
ATOM     26  O   TRP A   6      26.149   3.798 -11.498  0.00  0.00    -0.570 OA
ATOM     27  N   SER A   7      27.248   1.799 -11.656  0.00  0.00    -0.730 N 
ATOM     28  HN  SER A   7      28.149   1.327 -11.600  0.00  0.00     0.370 HD
BRANCH  27  29
ATOM     29  CA  SER A   7      26.239   1.147 -12.485  0.00  0.00     0.361 C 
BRANCH  29  30
ATOM     30  CB  SER A   7      26.801   0.849 -13.885  0.00  0.00     0.280 C 
BRANCH  30  31
ATOM     31  OG  SER A   7      25.763   0.587 -14.834  0.00  0.00    -0.680 OA
ATOM     32  HG  SER A   7      26.147   0.732 -15.725  0.00  0.00     0.400 HD
ENDBRANCH  30  31
ENDBRANCH  29  30
BRANCH  29  33
ATOM     33  C   SER A   7      25.780  -0.137 -11.773  0.00  0.00     0.569 C 
ATOM     34  O   SER A   7      26.383  -0.635 -10.823  0.00  0.00    -0.570 OA
ATOM     35  N   NHH A   8      24.619  -0.706 -12.213  0.00  0.00    -0.800 N 
ATOM     36  HN1 NHH A   8      24.254  -0.530 -13.139  0.00  0.00     0.370 HD
ATOM     37  HN2 NHH A   8      24.391  -1.602 -11.797  0.00  0.00     0.370 HD
ENDBRANCH  29  33
ENDBRANCH  27  29
ENDBRANCH  13  25
ENDBRANCH  11  13
ENDBRANCH   5   9
ENDBRANCH   3   5
BRANCH   1  38
ATOM     38  CA  ALA A   4      35.202   3.589 -11.290  0.00  0.00     0.361 C 
ATOM     39  CB  ALA A   4      35.646   4.945 -11.819  0.00  0.00     0.000 C 
BRANCH  38  40
ATOM     40  N   ALA A   4      36.174   2.545 -11.580  0.00  0.00    -0.730 N 
ATOM     41  HN  ALA A   4      36.267   2.276 -12.558  0.00  0.00     0.370 HD
ATOM     42  C   PHE A   3      36.736   1.765 -10.602  0.00  0.00     0.569 C 
ATOM     43  O   PHE A   3      36.561   1.961  -9.398  0.00  0.00    -0.570 OA
BRANCH  42  44
ATOM     44  CA  PHE A   3      37.602   0.595 -11.106  0.00  0.00     0.361 C 
BRANCH  44  45
ATOM     45  N   PHE A   3      36.751  -0.179 -12.016  0.00  0.00    -0.730 N 
ATOM     46  HN  PHE A   3      36.270   0.358 -12.735  0.00  0.00     0.370 HD
ATOM     47  C   ALA A   2      36.598  -1.535 -11.915  0.00  0.00     0.569 C 
ATOM     48  O   ALA A   2      37.181  -2.220 -11.072  0.00  0.00    -0.570 OA
BRANCH  47  49
ATOM     49  CA  ALA A   2      35.649  -2.178 -12.944  0.00  0.00     0.361 C 
ATOM     50  CB  ALA A   2      35.185  -1.166 -13.983  0.00  0.00     0.000 C 
BRANCH  49  51
ATOM     51  N   ALA A   2      34.512  -2.713 -12.186  0.00  0.00    -0.730 N 
ATOM     52  HN  ALA A   2      34.118  -2.062 -11.508  0.00  0.00     0.370 HD
ATOM     53  C   PRO A   1      34.147  -4.026 -12.227  0.00  0.00     0.569 C 
ATOM     54  O   PRO A   1      34.678  -4.873 -12.946  0.00  0.00    -0.570 OA
BRANCH  53  55
ATOM     55  CA  PRO A   1      32.979  -4.451 -11.324  0.00  0.00     0.564 C 
ATOM     56  CB  PRO A   1      31.866  -5.174 -12.071  0.00  0.00     0.000 C 
ATOM     57  CG  PRO A   1      30.906  -4.064 -12.470  0.00  0.00     0.000 C 
ATOM     58  CD  PRO A   1      30.893  -3.161 -11.255  0.00  0.00     0.503 C 
ATOM     59  N   PRO A   1      32.302  -3.198 -10.773  0.00  0.00    -0.906 N 
ATOM     60  H1  PRO A   1      32.384  -3.123  -9.753  0.00  0.00     0.450 HD
ATOM     61  H2  PRO A   1      32.834  -2.397 -11.169  0.00  0.00     0.450 HD
ENDBRANCH  53  55
ENDBRANCH  49  51
ENDBRANCH  47  49
ENDBRANCH  44  45
BRANCH  44  62
ATOM     62  CB  PHE A   3      38.854   1.114 -11.832  0.00  0.00     0.143 C 
BRANCH  62  63
ATOM     63  CG  PHE A   3      39.602   0.051 -12.599  0.00  0.00    -0.143 A 
ATOM     64  CD1 PHE A   3      40.408  -0.878 -11.924  0.00  0.00     0.000 A 
ATOM     65  CE1 PHE A   3      41.066  -1.886 -12.629  0.00  0.00     0.000 A 
ATOM     66  CZ  PHE A   3      40.928  -1.973 -14.012  0.00  0.00     0.000 A 
ATOM     67  CE2 PHE A   3      40.137  -1.049 -14.694  0.00  0.00     0.000 A 
ATOM     68  CD2 PHE A   3      39.478  -0.040 -13.992  0.00  0.00     0.000 A 
ENDBRANCH  62  63
ENDBRANCH  44  62
ENDBRANCH  42  44
ENDBRANCH  38  40
ENDBRANCH   1  38
TORSDOF 21
ENDMDL
MODEL 2
REMARK VINA RESULT:     -10.9      1.447      2.584
REMARK  21 active torsions:
REMARK  status: ('A' for Active; 'I' for Inactive)
REMARK    1  A    between atoms: CA_2  and  C_3 
REMARK       I    between atoms: C_3  and  N_10 
REMARK    2  A    between atoms: CA_11  and  N_10 
REMARK    3  A    between atoms: CA_11  and  C_12 
REMARK       I    between atoms: C_12  and  N_16 
REMARK    4  A    between atoms: CA_17  and  N_16 
REMARK    5  A    between atoms: CA_17  and  CB_20 
REMARK    6  A    between atoms: CA_17  and  C_18 
REMARK       I    between atoms: C_18  and  N_28 
REMARK    7  A    between atoms: CB_20  and  CG_21 
REMARK    8  A    between atoms: CA_29  and  N_28 
REMARK    9  A    between atoms: CA_29  and  C_30 
REMARK       I    between atoms: C_30  and  N_34 
REMARK   10  A    between atoms: CA_35  and  N_34 
REMARK   11  A    between atoms: CA_35  and  CB_38 
REMARK   12  A    between atoms: CA_35  and  C_36 
REMARK       I    between atoms: C_36  and  N_42 
REMARK   13  A    between atoms: CB_38  and  OG_39 
REMARK   14  A    between atoms: CA_43  and  N_42 
REMARK   15  A    between atoms: CA_43  and  CB_46 
REMARK   16  A    between atoms: CA_43  and  C_44 
REMARK       I    between atoms: C_44  and  N_58 
REMARK   17  A    between atoms: CB_46  and  CG_47 
REMARK   18  A    between atoms: CA_59  and  N_58 
REMARK   19  A    between atoms: CA_59  and  CB_62 
REMARK   20  A    between atoms: CA_59  and  C_60 
REMARK       I    between atoms: C_60  and  N_66 
REMARK   21  A    between atoms: CB_62  and  OG_63 
ROOT
ATOM      1  C   ALA A   4      33.996   3.330 -11.782  0.00  0.00     0.569 C 
ATOM      2  O   ALA A   4      33.472   3.912 -12.732  0.00  0.00    -0.570 OA
ATOM      3  N   SER A   5      33.376   2.297 -11.124  0.00  0.00    -0.730 N 
ATOM      4  HN  SER A   5      33.773   1.918 -10.267  0.00  0.00     0.370 HD
ENDROOT
BRANCH   3   5
ATOM      5  CA  SER A   5      32.019   1.864 -11.471  0.00  0.00     0.361 C 
BRANCH   5   6
ATOM      6  CB  SER A   5      31.810   0.372 -11.177  0.00  0.00     0.280 C 
BRANCH   6   7
ATOM      7  OG  SER A   5      33.021  -0.254 -10.754  0.00  0.00    -0.680 OA
ATOM      8  HG  SER A   5      32.779  -1.142 -10.429  0.00  0.00     0.400 HD
ENDBRANCH   6   7
ENDBRANCH   5   6
BRANCH   5   9
ATOM      9  C   SER A   5      31.037   2.742 -10.674  0.00  0.00     0.569 C 
ATOM     10  O   SER A   5      31.199   2.964  -9.470  0.00  0.00    -0.570 OA
ATOM     11  N   TRP A   6      29.975   3.259 -11.378  0.00  0.00    -0.730 N 
ATOM     12  HN  TRP A   6      29.722   2.846 -12.268  0.00  0.00     0.370 HD
BRANCH  11  13
ATOM     13  CA  TRP A   6      28.941   4.059 -10.711  0.00  0.00     0.361 C 
BRANCH  13  14
ATOM     14  CB  TRP A   6      28.900   5.502 -11.229  0.00  0.00     0.181 C 
BRANCH  14  15
ATOM     15  CG  TRP A   6      30.264   6.060 -11.512  0.00  0.00    -0.181 A 
ATOM     16  CD1 TRP A   6      30.827   6.252 -12.760  0.00  0.00    -0.152 A 
ATOM     17  NE1 TRP A   6      32.081   6.777 -12.588  0.00  0.00     0.033 N 
ATOM     18  CE2 TRP A   6      32.352   6.933 -11.250  0.00  0.00    -0.152 A 
ATOM     19  HE1 TRP A   6      32.719   7.021 -13.332  0.00  0.00     0.270 HD
ATOM     20  CD2 TRP A   6      31.227   6.499 -10.548  0.00  0.00     0.000 A 
ATOM     21  CZ2 TRP A   6      33.498   7.426 -10.614  0.00  0.00     0.000 A 
ATOM     22  CE3 TRP A   6      31.247   6.565  -9.139  0.00  0.00     0.000 A 
ATOM     23  CZ3 TRP A   6      32.386   7.055  -8.488  0.00  0.00     0.000 A 
ATOM     24  CH2 TRP A   6      33.494   7.478  -9.217  0.00  0.00     0.000 A 
ENDBRANCH  14  15
ENDBRANCH  13  14
BRANCH  13  25
ATOM     25  C   TRP A   6      27.599   3.374 -11.018  0.00  0.00     0.569 C 
ATOM     26  O   TRP A   6      26.634   3.422 -10.257  0.00  0.00    -0.570 OA
ATOM     27  N   SER A   7      27.525   2.832 -12.280  0.00  0.00    -0.730 N 
ATOM     28  HN  SER A   7      28.308   2.950 -12.921  0.00  0.00     0.370 HD
BRANCH  27  29
ATOM     29  CA  SER A   7      26.255   2.449 -12.888  0.00  0.00     0.361 C 
BRANCH  29  30
ATOM     30  CB  SER A   7      25.351   3.679 -13.071  0.00  0.00     0.280 C 
BRANCH  30  31
ATOM     31  OG  SER A   7      24.849   3.781 -14.406  0.00  0.00    -0.680 OA
ATOM     32  HG  SER A   7      25.627   3.797 -15.003  0.00  0.00     0.400 HD
ENDBRANCH  30  31
ENDBRANCH  29  30
BRANCH  29  33
ATOM     33  C   SER A   7      26.548   1.757 -14.230  0.00  0.00     0.569 C 
ATOM     34  O   SER A   7      25.861   0.842 -14.684  0.00  0.00    -0.570 OA
ATOM     35  N   NHH A   8      27.606   2.231 -14.952  0.00  0.00    -0.800 N 
ATOM     36  HN1 NHH A   8      28.359   2.750 -14.520  0.00  0.00     0.370 HD
ATOM     37  HN2 NHH A   8      27.840   1.696 -15.781  0.00  0.00     0.370 HD
ENDBRANCH  29  33
ENDBRANCH  27  29
ENDBRANCH  13  25
ENDBRANCH  11  13
ENDBRANCH   5   9
ENDBRANCH   3   5
BRANCH   1  38
ATOM     38  CA  ALA A   4      35.381   3.715 -11.236  0.00  0.00     0.361 C 
ATOM     39  CB  ALA A   4      35.835   5.034 -11.845  0.00  0.00     0.000 C 
BRANCH  38  40
ATOM     40  N   ALA A   4      36.296   2.627 -11.547  0.00  0.00    -0.730 N 
ATOM     41  HN  ALA A   4      36.363   2.363 -12.530  0.00  0.00     0.370 HD
ATOM     42  C   PHE A   3      36.829   1.809 -10.584  0.00  0.00     0.569 C 
ATOM     43  O   PHE A   3      36.678   2.001  -9.377  0.00  0.00    -0.570 OA
BRANCH  42  44
ATOM     44  CA  PHE A   3      37.629   0.602 -11.110  0.00  0.00     0.361 C 
BRANCH  44  45
ATOM     45  N   PHE A   3      36.733  -0.111 -12.027  0.00  0.00    -0.730 N 
ATOM     46  HN  PHE A   3      36.270   0.465 -12.728  0.00  0.00     0.370 HD
ATOM     47  C   ALA A   2      36.519  -1.460 -11.956  0.00  0.00     0.569 C 
ATOM     48  O   ALA A   2      37.078  -2.190 -11.135  0.00  0.00    -0.570 OA
BRANCH  47  49
ATOM     49  CA  ALA A   2      35.531  -2.035 -12.989  0.00  0.00     0.361 C 
ATOM     50  CB  ALA A   2      35.024  -0.956 -13.935  0.00  0.00     0.000 C 
BRANCH  49  51
ATOM     51  N   ALA A   2      34.425  -2.625 -12.225  0.00  0.00    -0.730 N 
ATOM     52  HN  ALA A   2      33.995  -1.991 -11.554  0.00  0.00     0.370 HD
ATOM     53  C   PRO A   1      34.137  -3.958 -12.251  0.00  0.00     0.569 C 
ATOM     54  O   PRO A   1      34.715  -4.781 -12.961  0.00  0.00    -0.570 OA
BRANCH  53  55
ATOM     55  CA  PRO A   1      32.994  -4.440 -11.344  0.00  0.00     0.564 C 
ATOM     56  CB  PRO A   1      31.868  -5.131 -12.100  0.00  0.00     0.000 C 
ATOM     57  CG  PRO A   1      30.890  -4.010 -12.417  0.00  0.00     0.000 C 
ATOM     58  CD  PRO A   1      30.901  -3.172 -11.156  0.00  0.00     0.503 C 
ATOM     59  N   PRO A   1      32.322  -3.222 -10.712  0.00  0.00    -0.906 N 
ATOM     60  H1  PRO A   1      32.429  -3.201  -9.691  0.00  0.00     0.450 HD
ATOM     61  H2  PRO A   1      32.839  -2.398 -11.077  0.00  0.00     0.450 HD
ENDBRANCH  53  55
ENDBRANCH  49  51
ENDBRANCH  47  49
ENDBRANCH  44  45
BRANCH  44  62
ATOM     62  CB  PHE A   3      38.904   1.064 -11.834  0.00  0.00     0.143 C 
BRANCH  62  63
ATOM     63  CG  PHE A   3      39.616  -0.037 -12.581  0.00  0.00    -0.143 A 
ATOM     64  CD1 PHE A   3      39.534  -0.117 -13.979  0.00  0.00     0.000 A 
ATOM     65  CE1 PHE A   3      40.226  -1.110 -14.673  0.00  0.00     0.000 A 
ATOM     66  CZ  PHE A   3      41.002  -2.033 -13.976  0.00  0.00     0.000 A 
ATOM     67  CE2 PHE A   3      41.083  -1.969 -12.585  0.00  0.00     0.000 A 
ATOM     68  CD2 PHE A   3      40.392  -0.978 -11.890  0.00  0.00     0.000 A 
ENDBRANCH  62  63
ENDBRANCH  44  62
ENDBRANCH  42  44
ENDBRANCH  38  40
ENDBRANCH   1  38
TORSDOF 21
ENDMDL
MODEL 3
REMARK VINA RESULT:     -10.6      2.485      9.959
REMARK  21 active torsions:
REMARK  status: ('A' for Active; 'I' for Inactive)
REMARK    1  A    between atoms: CA_2  and  C_3 
REMARK       I    between atoms: C_3  and  N_10 
REMARK    2  A    between atoms: CA_11  and  N_10 
REMARK    3  A    between atoms: CA_11  and  C_12 
REMARK       I    between atoms: C_12  and  N_16 
REMARK    4  A    between atoms: CA_17  and  N_16 
REMARK    5  A    between atoms: CA_17  and  CB_20 
REMARK    6  A    between atoms: CA_17  and  C_18 
REMARK       I    between atoms: C_18  and  N_28 
REMARK    7  A    between atoms: CB_20  and  CG_21 
REMARK    8  A    between atoms: CA_29  and  N_28 
REMARK    9  A    between atoms: CA_29  and  C_30 
REMARK       I    between atoms: C_30  and  N_34 
REMARK   10  A    between atoms: CA_35  and  N_34 
REMARK   11  A    between atoms: CA_35  and  CB_38 
REMARK   12  A    between atoms: CA_35  and  C_36 
REMARK       I    between atoms: C_36  and  N_42 
REMARK   13  A    between atoms: CB_38  and  OG_39 
REMARK   14  A    between atoms: CA_43  and  N_42 
REMARK   15  A    between atoms: CA_43  and  CB_46 
REMARK   16  A    between atoms: CA_43  and  C_44 
REMARK       I    between atoms: C_44  and  N_58 
REMARK   17  A    between atoms: CB_46  and  CG_47 
REMARK   18  A    between atoms: CA_59  and  N_58 
REMARK   19  A    between atoms: CA_59  and  CB_62 
REMARK   20  A    between atoms: CA_59  and  C_60 
REMARK       I    between atoms: C_60  and  N_66 
REMARK   21  A    between atoms: CB_62  and  OG_63 
ROOT
ATOM      1  C   ALA A   4      36.552   3.488 -11.300  0.00  0.00     0.569 C 
ATOM      2  O   ALA A   4      37.671   3.998 -11.361  0.00  0.00    -0.570 OA
ATOM      3  N   SER A   5      36.333   2.270 -10.707  0.00  0.00    -0.730 N 
ATOM      4  HN  SER A   5      35.426   1.814 -10.781  0.00  0.00     0.370 HD
ENDROOT
BRANCH   3   5
ATOM      5  CA  SER A   5      37.432   1.466 -10.165  0.00  0.00     0.361 C 
BRANCH   5   6
ATOM      6  CB  SER A   5      37.373   1.388  -8.633  0.00  0.00     0.280 C 
BRANCH   6   7
ATOM      7  OG  SER A   5      37.150   0.052  -8.184  0.00  0.00    -0.680 OA
ATOM      8  HG  SER A   5      36.264   0.037  -7.776  0.00  0.00     0.400 HD
ENDBRANCH   6   7
ENDBRANCH   5   6
BRANCH   5   9
ATOM      9  C   SER A   5      37.345   0.071 -10.809  0.00  0.00     0.569 C 
ATOM     10  O   SER A   5      38.152  -0.822 -10.529  0.00  0.00    -0.570 OA
ATOM     11  N   TRP A   6      36.323  -0.121 -11.708  0.00  0.00    -0.730 N 
ATOM     12  HN  TRP A   6      35.862   0.684 -12.115  0.00  0.00     0.370 HD
BRANCH  11  13
ATOM     13  CA  TRP A   6      36.177  -1.392 -12.430  0.00  0.00     0.361 C 
BRANCH  13  14
ATOM     14  CB  TRP A   6      34.759  -1.587 -12.980  0.00  0.00     0.181 C 
BRANCH  14  15
ATOM     15  CG  TRP A   6      34.170  -2.919 -12.620  0.00  0.00    -0.181 A 
ATOM     16  CD1 TRP A   6      34.872  -4.081 -12.360  0.00  0.00    -0.152 A 
ATOM     17  NE1 TRP A   6      33.971  -5.072 -12.074  0.00  0.00     0.033 N 
ATOM     18  CE2 TRP A   6      32.688  -4.582 -12.140  0.00  0.00    -0.152 A 
ATOM     19  HE1 TRP A   6      34.206  -6.027 -11.842  0.00  0.00     0.270 HD
ATOM     20  CD2 TRP A   6      32.780  -3.230 -12.472  0.00  0.00     0.000 A 
ATOM     21  CZ2 TRP A   6      31.464  -5.229 -11.926  0.00  0.00     0.000 A 
ATOM     22  CE3 TRP A   6      31.588  -2.486 -12.594  0.00  0.00     0.000 A 
ATOM     23  CZ3 TRP A   6      30.357  -3.118 -12.385  0.00  0.00     0.000 A 
ATOM     24  CH2 TRP A   6      30.298  -4.470 -12.056  0.00  0.00     0.000 A 
ENDBRANCH  14  15
ENDBRANCH  13  14
BRANCH  13  25
ATOM     25  C   TRP A   6      37.171  -1.339 -13.603  0.00  0.00     0.569 C 
ATOM     26  O   TRP A   6      36.830  -1.083 -14.756  0.00  0.00    -0.570 OA
ATOM     27  N   SER A   7      38.487  -1.453 -13.224  0.00  0.00    -0.730 N 
ATOM     28  HN  SER A   7      38.719  -1.518 -12.234  0.00  0.00     0.370 HD
BRANCH  27  29
ATOM     29  CA  SER A   7      39.586  -1.091 -14.113  0.00  0.00     0.361 C 
BRANCH  29  30
ATOM     30  CB  SER A   7      39.573   0.420 -14.399  0.00  0.00     0.280 C 
BRANCH  30  31
ATOM     31  OG  SER A   7      40.351   1.151 -13.447  0.00  0.00    -0.680 OA
ATOM     32  HG  SER A   7      39.951   0.990 -12.566  0.00  0.00     0.400 HD
ENDBRANCH  30  31
ENDBRANCH  29  30
BRANCH  29  33
ATOM     33  C   SER A   7      40.907  -1.533 -13.459  0.00  0.00     0.569 C 
ATOM     34  O   SER A   7      41.972  -1.613 -14.072  0.00  0.00    -0.570 OA
ATOM     35  N   NHH A   8      40.874  -1.803 -12.121  0.00  0.00    -0.800 N 
ATOM     36  HN1 NHH A   8      40.015  -2.039 -11.644  0.00  0.00     0.370 HD
ATOM     37  HN2 NHH A   8      41.729  -2.186 -11.735  0.00  0.00     0.370 HD
ENDBRANCH  29  33
ENDBRANCH  27  29
ENDBRANCH  13  25
ENDBRANCH  11  13
ENDBRANCH   5   9
ENDBRANCH   3   5
BRANCH   1  38
ATOM     38  CA  ALA A   4      35.302   4.159 -11.895  0.00  0.00     0.361 C 
ATOM     39  CB  ALA A   4      35.281   5.638 -11.533  0.00  0.00     0.000 C 
BRANCH  38  40
ATOM     40  N   ALA A   4      34.137   3.455 -11.381  0.00  0.00    -0.730 N 
ATOM     41  HN  ALA A   4      34.272   2.933 -10.516  0.00  0.00     0.370 HD
ATOM     42  C   PHE A   3      33.003   3.257 -12.126  0.00  0.00     0.569 C 
ATOM     43  O   PHE A   3      32.830   3.758 -13.238  0.00  0.00    -0.570 OA
BRANCH  42  44
ATOM     44  CA  PHE A   3      31.945   2.337 -11.488  0.00  0.00     0.361 C 
BRANCH  44  45
ATOM     45  N   PHE A   3      30.772   3.181 -11.231  0.00  0.00    -0.730 N 
ATOM     46  HN  PHE A   3      30.006   3.085 -11.896  0.00  0.00     0.370 HD
ATOM     47  C   ALA A   2      30.699   4.049 -10.176  0.00  0.00     0.569 C 
ATOM     48  O   ALA A   2      31.597   4.175  -9.341  0.00  0.00    -0.570 OA
BRANCH  47  49
ATOM     49  CA  ALA A   2      29.398   4.868 -10.074  0.00  0.00     0.361 C 
ATOM     50  CB  ALA A   2      28.326   4.115  -9.299  0.00  0.00     0.000 C 
BRANCH  49  51
ATOM     51  N   ALA A   2      28.963   5.132 -11.451  0.00  0.00    -0.730 N 
ATOM     52  HN  ALA A   2      28.311   4.442 -11.824  0.00  0.00     0.370 HD
ATOM     53  C   PRO A   1      29.536   6.087 -12.238  0.00  0.00     0.569 C 
ATOM     54  O   PRO A   1      30.414   6.864 -11.860  0.00  0.00    -0.570 OA
BRANCH  53  55
ATOM     55  CA  PRO A   1      29.021   6.199 -13.681  0.00  0.00     0.564 C 
ATOM     56  CB  PRO A   1      28.429   4.902 -14.217  0.00  0.00     0.000 C 
ATOM     57  CG  PRO A   1      29.603   4.209 -14.891  0.00  0.00     0.000 C 
ATOM     58  CD  PRO A   1      30.337   5.347 -15.569  0.00  0.00     0.503 C 
ATOM     59  N   PRO A   1      30.205   6.475 -14.606  0.00  0.00    -0.906 N 
ATOM     60  H1  PRO A   1      30.142   7.393 -15.062  0.00  0.00     0.450 HD
ATOM     61  H2  PRO A   1      31.039   6.514 -13.986  0.00  0.00     0.450 HD
ENDBRANCH  53  55
ENDBRANCH  49  51
ENDBRANCH  47  49
ENDBRANCH  44  45
BRANCH  44  62
ATOM     62  CB  PHE A   3      31.591   1.175 -12.429  0.00  0.00     0.143 C 
BRANCH  62  63
ATOM     63  CG  PHE A   3      30.161   0.708 -12.313  0.00  0.00    -0.143 A 
ATOM     64  CD1 PHE A   3      29.645   0.294 -11.076  0.00  0.00     0.000 A 
ATOM     65  CE1 PHE A   3      28.311  -0.099 -10.961  0.00  0.00     0.000 A 
ATOM     66  CZ  PHE A   3      27.483  -0.085 -12.081  0.00  0.00     0.000 A 
ATOM     67  CE2 PHE A   3      27.987   0.316 -13.317  0.00  0.00     0.000 A 
ATOM     68  CD2 PHE A   3      29.320   0.708 -13.435  0.00  0.00     0.000 A 
ENDBRANCH  62  63
ENDBRANCH  44  62
ENDBRANCH  42  44
ENDBRANCH  38  40
ENDBRANCH   1  38
TORSDOF 21
ENDMDL
MODEL 4
REMARK VINA RESULT:     -10.4      2.440      9.883
REMARK  21 active torsions:
REMARK  status: ('A' for Active; 'I' for Inactive)
REMARK    1  A    between atoms: CA_2  and  C_3 
REMARK       I    between atoms: C_3  and  N_10 
REMARK    2  A    between atoms: CA_11  and  N_10 
REMARK    3  A    between atoms: CA_11  and  C_12 
REMARK       I    between atoms: C_12  and  N_16 
REMARK    4  A    between atoms: CA_17  and  N_16 
REMARK    5  A    between atoms: CA_17  and  CB_20 
REMARK    6  A    between atoms: CA_17  and  C_18 
REMARK       I    between atoms: C_18  and  N_28 
REMARK    7  A    between atoms: CB_20  and  CG_21 
REMARK    8  A    between atoms: CA_29  and  N_28 
REMARK    9  A    between atoms: CA_29  and  C_30 
REMARK       I    between atoms: C_30  and  N_34 
REMARK   10  A    between atoms: CA_35  and  N_34 
REMARK   11  A    between atoms: CA_35  and  CB_38 
REMARK   12  A    between atoms: CA_35  and  C_36 
REMARK       I    between atoms: C_36  and  N_42 
REMARK   13  A    between atoms: CB_38  and  OG_39 
REMARK   14  A    between atoms: CA_43  and  N_42 
REMARK   15  A    between atoms: CA_43  and  CB_46 
REMARK   16  A    between atoms: CA_43  and  C_44 
REMARK       I    between atoms: C_44  and  N_58 
REMARK   17  A    between atoms: CB_46  and  CG_47 
REMARK   18  A    between atoms: CA_59  and  N_58 
REMARK   19  A    between atoms: CA_59  and  CB_62 
REMARK   20  A    between atoms: CA_59  and  C_60 
REMARK       I    between atoms: C_60  and  N_66 
REMARK   21  A    between atoms: CB_62  and  OG_63 
ROOT
ATOM      1  C   ALA A   4      36.647   3.324 -11.234  0.00  0.00     0.569 C 
ATOM      2  O   ALA A   4      37.800   3.741 -11.341  0.00  0.00    -0.570 OA
ATOM      3  N   SER A   5      36.343   2.179 -10.541  0.00  0.00    -0.730 N 
ATOM      4  HN  SER A   5      35.404   1.789 -10.573  0.00  0.00     0.370 HD
ENDROOT
BRANCH   3   5
ATOM      5  CA  SER A   5      37.385   1.343  -9.938  0.00  0.00     0.361 C 
BRANCH   5   6
ATOM      6  CB  SER A   5      37.294   1.343  -8.405  0.00  0.00     0.280 C 
BRANCH   6   7
ATOM      7  OG  SER A   5      38.236   2.244  -7.824  0.00  0.00    -0.680 OA
ATOM      8  HG  SER A   5      38.976   1.701  -7.493  0.00  0.00     0.400 HD
ENDBRANCH   6   7
ENDBRANCH   5   6
BRANCH   5   9
ATOM      9  C   SER A   5      37.229  -0.076 -10.515  0.00  0.00     0.569 C 
ATOM     10  O   SER A   5      37.751  -1.055  -9.973  0.00  0.00    -0.570 OA
ATOM     11  N   TRP A   6      36.479  -0.187 -11.662  0.00  0.00    -0.730 N 
ATOM     12  HN  TRP A   6      36.303   0.639 -12.221  0.00  0.00     0.370 HD
BRANCH  11  13
ATOM     13  CA  TRP A   6      36.313  -1.481 -12.337  0.00  0.00     0.361 C 
BRANCH  13  14
ATOM     14  CB  TRP A   6      34.897  -1.664 -12.898  0.00  0.00     0.181 C 
BRANCH  14  15
ATOM     15  CG  TRP A   6      34.295  -2.991 -12.543  0.00  0.00    -0.181 A 
ATOM     16  CD1 TRP A   6      34.986  -4.149 -12.240  0.00  0.00    -0.152 A 
ATOM     17  NE1 TRP A   6      34.075  -5.136 -11.976  0.00  0.00     0.033 N 
ATOM     18  CE2 TRP A   6      32.796  -4.648 -12.100  0.00  0.00    -0.152 A 
ATOM     19  HE1 TRP A   6      34.301  -6.088 -11.722  0.00  0.00     0.270 HD
ATOM     20  CD2 TRP A   6      32.901  -3.301 -12.447  0.00  0.00     0.000 A 
ATOM     21  CZ2 TRP A   6      31.564  -5.293 -11.926  0.00  0.00     0.000 A 
ATOM     22  CE3 TRP A   6      31.714  -2.560 -12.627  0.00  0.00     0.000 A 
ATOM     23  CZ3 TRP A   6      30.475  -3.190 -12.459  0.00  0.00     0.000 A 
ATOM     24  CH2 TRP A   6      30.404  -4.537 -12.114  0.00  0.00     0.000 A 
ENDBRANCH  14  15
ENDBRANCH  13  14
BRANCH  13  25
ATOM     25  C   TRP A   6      37.323  -1.496 -13.497  0.00  0.00     0.569 C 
ATOM     26  O   TRP A   6      36.986  -1.603 -14.675  0.00  0.00    -0.570 OA
ATOM     27  N   SER A   7      38.616  -1.229 -13.114  0.00  0.00    -0.730 N 
ATOM     28  HN  SER A   7      38.813  -1.004 -12.140  0.00  0.00     0.370 HD
BRANCH  27  29
ATOM     29  CA  SER A   7      39.651  -0.862 -14.075  0.00  0.00     0.361 C 
BRANCH  29  30
ATOM     30  CB  SER A   7      39.576   0.639 -14.400  0.00  0.00     0.280 C 
BRANCH  30  31
ATOM     31  OG  SER A   7      39.992   1.447 -13.296  0.00  0.00    -0.680 OA
ATOM     32  HG  SER A   7      40.614   0.906 -12.764  0.00  0.00     0.400 HD
ENDBRANCH  30  31
ENDBRANCH  29  30
BRANCH  29  33
ATOM     33  C   SER A   7      41.019  -1.247 -13.488  0.00  0.00     0.569 C 
ATOM     34  O   SER A   7      41.946  -0.448 -13.351  0.00  0.00    -0.570 OA
ATOM     35  N   NHH A   8      41.170  -2.537 -13.066  0.00  0.00    -0.800 N 
ATOM     36  HN1 NHH A   8      40.583  -3.284 -13.411  0.00  0.00     0.370 HD
ATOM     37  HN2 NHH A   8      42.107  -2.792 -12.777  0.00  0.00     0.370 HD
ENDBRANCH  29  33
ENDBRANCH  27  29
ENDBRANCH  13  25
ENDBRANCH  11  13
ENDBRANCH   5   9
ENDBRANCH   3   5
BRANCH   1  38
ATOM     38  CA  ALA A   4      35.444   4.036 -11.877  0.00  0.00     0.361 C 
ATOM     39  CB  ALA A   4      35.476   5.521 -11.542  0.00  0.00     0.000 C 
BRANCH  38  40
ATOM     40  N   ALA A   4      34.236   3.391 -11.387  0.00  0.00    -0.730 N 
ATOM     41  HN  ALA A   4      34.330   2.854 -10.525  0.00  0.00     0.370 HD
ATOM     42  C   PHE A   3      33.104   3.261 -12.151  0.00  0.00     0.569 C 
ATOM     43  O   PHE A   3      32.975   3.781 -13.260  0.00  0.00    -0.570 OA
BRANCH  42  44
ATOM     44  CA  PHE A   3      31.989   2.394 -11.536  0.00  0.00     0.361 C 
BRANCH  44  45
ATOM     45  N   PHE A   3      30.836   3.282 -11.353  0.00  0.00    -0.730 N 
ATOM     46  HN  PHE A   3      30.396   3.616 -12.209  0.00  0.00     0.370 HD
ATOM     47  C   ALA A   2      30.372   3.652 -10.121  0.00  0.00     0.569 C 
ATOM     48  O   ALA A   2      30.866   3.251  -9.065  0.00  0.00    -0.570 OA
BRANCH  47  49
ATOM     49  CA  ALA A   2      29.162   4.606 -10.121  0.00  0.00     0.361 C 
ATOM     50  CB  ALA A   2      29.051   5.364  -8.805  0.00  0.00     0.000 C 
BRANCH  49  51
ATOM     51  N   ALA A   2      27.976   3.774 -10.350  0.00  0.00    -0.730 N 
ATOM     52  HN  ALA A   2      27.592   3.351  -9.506  0.00  0.00     0.370 HD
ATOM     53  C   PRO A   1      27.548   3.421 -11.596  0.00  0.00     0.569 C 
ATOM     54  O   PRO A   1      28.061   3.815 -12.644  0.00  0.00    -0.570 OA
BRANCH  53  55
ATOM     55  CA  PRO A   1      26.331   2.486 -11.675  0.00  0.00     0.564 C 
ATOM     56  CB  PRO A   1      25.602   2.550 -13.010  0.00  0.00     0.000 C 
ATOM     57  CG  PRO A   1      24.534   3.613 -12.799  0.00  0.00     0.000 C 
ATOM     58  CD  PRO A   1      24.050   3.345 -11.390  0.00  0.00     0.503 C 
ATOM     59  N   PRO A   1      25.288   2.951 -10.661  0.00  0.00    -0.906 N 
ATOM     60  H1  PRO A   1      25.121   2.257  -9.923  0.00  0.00     0.450 HD
ATOM     61  H2  PRO A   1      25.705   3.781 -10.193  0.00  0.00     0.450 HD
ENDBRANCH  53  55
ENDBRANCH  49  51
ENDBRANCH  47  49
ENDBRANCH  44  45
BRANCH  44  62
ATOM     62  CB  PHE A   3      31.637   1.219 -12.463  0.00  0.00     0.143 C 
BRANCH  62  63
ATOM     63  CG  PHE A   3      30.295   0.592 -12.173  0.00  0.00    -0.143 A 
ATOM     64  CD1 PHE A   3      29.371   0.381 -13.207  0.00  0.00     0.000 A 
ATOM     65  CE1 PHE A   3      28.146  -0.235 -12.946  0.00  0.00     0.000 A 
ATOM     66  CZ  PHE A   3      27.834  -0.642 -11.652  0.00  0.00     0.000 A 
ATOM     67  CE2 PHE A   3      28.741  -0.429 -10.614  0.00  0.00     0.000 A 
ATOM     68  CD2 PHE A   3      29.965   0.188 -10.872  0.00  0.00     0.000 A 
ENDBRANCH  62  63
ENDBRANCH  44  62
ENDBRANCH  42  44
ENDBRANCH  38  40
ENDBRANCH   1  38
TORSDOF 21
ENDMDL
MODEL 5
REMARK VINA RESULT:     -10.3      2.245      4.252
REMARK  21 active torsions:
REMARK  status: ('A' for Active; 'I' for Inactive)
REMARK    1  A    between atoms: CA_2  and  C_3 
REMARK       I    between atoms: C_3  and  N_10 
REMARK    2  A    between atoms: CA_11  and  N_10 
REMARK    3  A    between atoms: CA_11  and  C_12 
REMARK       I    between atoms: C_12  and  N_16 
REMARK    4  A    between atoms: CA_17  and  N_16 
REMARK    5  A    between atoms: CA_17  and  CB_20 
REMARK    6  A    between atoms: CA_17  and  C_18 
REMARK       I    between atoms: C_18  and  N_28 
REMARK    7  A    between atoms: CB_20  and  CG_21 
REMARK    8  A    between atoms: CA_29  and  N_28 
REMARK    9  A    between atoms: CA_29  and  C_30 
REMARK       I    between atoms: C_30  and  N_34 
REMARK   10  A    between atoms: CA_35  and  N_34 
REMARK   11  A    between atoms: CA_35  and  CB_38 
REMARK   12  A    between atoms: CA_35  and  C_36 
REMARK       I    between atoms: C_36  and  N_42 
REMARK   13  A    between atoms: CB_38  and  OG_39 
REMARK   14  A    between atoms: CA_43  and  N_42 
REMARK   15  A    between atoms: CA_43  and  CB_46 
REMARK   16  A    between atoms: CA_43  and  C_44 
REMARK       I    between atoms: C_44  and  N_58 
REMARK   17  A    between atoms: CB_46  and  CG_47 
REMARK   18  A    between atoms: CA_59  and  N_58 
REMARK   19  A    between atoms: CA_59  and  CB_62 
REMARK   20  A    between atoms: CA_59  and  C_60 
REMARK       I    between atoms: C_60  and  N_66 
REMARK   21  A    between atoms: CB_62  and  OG_63 
ROOT
ATOM      1  C   ALA A   4      33.512   2.943 -11.377  0.00  0.00     0.569 C 
ATOM      2  O   ALA A   4      33.335   1.729 -11.480  0.00  0.00    -0.570 OA
ATOM      3  N   SER A   5      32.473   3.839 -11.400  0.00  0.00    -0.730 N 
ATOM      4  HN  SER A   5      32.654   4.840 -11.441  0.00  0.00     0.370 HD
ENDROOT
BRANCH   3   5
ATOM      5  CA  SER A   5      31.088   3.410 -11.615  0.00  0.00     0.361 C 
BRANCH   5   6
ATOM      6  CB  SER A   5      30.099   4.272 -10.817  0.00  0.00     0.280 C 
BRANCH   6   7
ATOM      7  OG  SER A   5      29.706   5.432 -11.549  0.00  0.00    -0.680 OA
ATOM      8  HG  SER A   5      29.127   5.952 -10.961  0.00  0.00     0.400 HD
ENDBRANCH   6   7
ENDBRANCH   5   6
BRANCH   5   9
ATOM      9  C   SER A   5      30.811   3.482 -13.127  0.00  0.00     0.569 C 
ATOM     10  O   SER A   5      31.562   4.095 -13.893  0.00  0.00    -0.570 OA
ATOM     11  N   TRP A   6      29.686   2.828 -13.572  0.00  0.00    -0.730 N 
ATOM     12  HN  TRP A   6      28.963   2.579 -12.908  0.00  0.00     0.370 HD
BRANCH  11  13
ATOM     13  CA  TRP A   6      29.288   2.879 -14.984  0.00  0.00     0.361 C 
BRANCH  13  14
ATOM     14  CB  TRP A   6      28.345   1.730 -15.363  0.00  0.00     0.181 C 
BRANCH  14  15
ATOM     15  CG  TRP A   6      27.975   0.868 -14.192  0.00  0.00    -0.181 A 
ATOM     16  CD1 TRP A   6      28.816   0.012 -13.507  0.00  0.00    -0.152 A 
ATOM     17  NE1 TRP A   6      28.096  -0.590 -12.509  0.00  0.00     0.033 N 
ATOM     18  CE2 TRP A   6      26.796  -0.145 -12.526  0.00  0.00    -0.152 A 
ATOM     19  HE1 TRP A   6      28.461  -1.263 -11.849  0.00  0.00     0.270 HD
ATOM     20  CD2 TRP A   6      26.690   0.779 -13.566  0.00  0.00     0.000 A 
ATOM     21  CZ2 TRP A   6      25.716  -0.485 -11.700  0.00  0.00     0.000 A 
ATOM     22  CE3 TRP A   6      25.442   1.396 -13.790  0.00  0.00     0.000 A 
ATOM     23  CZ3 TRP A   6      24.353   1.067 -12.975  0.00  0.00     0.000 A 
ATOM     24  CH2 TRP A   6      24.490   0.139 -11.946  0.00  0.00     0.000 A 
ENDBRANCH  14  15
ENDBRANCH  13  14
BRANCH  13  25
ATOM     25  C   TRP A   6      28.556   4.218 -15.179  0.00  0.00     0.569 C 
ATOM     26  O   TRP A   6      28.713   4.927 -16.171  0.00  0.00    -0.570 OA
ATOM     27  N   SER A   7      27.604   4.478 -14.221  0.00  0.00    -0.730 N 
ATOM     28  HN  SER A   7      27.417   3.782 -13.501  0.00  0.00     0.370 HD
BRANCH  27  29
ATOM     29  CA  SER A   7      26.579   5.500 -14.402  0.00  0.00     0.361 C 
BRANCH  29  30
ATOM     30  CB  SER A   7      25.207   4.974 -13.950  0.00  0.00     0.280 C 
BRANCH  30  31
ATOM     31  OG  SER A   7      24.165   5.350 -14.855  0.00  0.00    -0.680 OA
ATOM     32  HG  SER A   7      23.332   5.375 -14.337  0.00  0.00     0.400 HD
ENDBRANCH  30  31
ENDBRANCH  29  30
BRANCH  29  33
ATOM     33  C   SER A   7      26.995   6.752 -13.610  0.00  0.00     0.569 C 
ATOM     34  O   SER A   7      28.148   6.960 -13.232  0.00  0.00    -0.570 OA
ATOM     35  N   NHH A   8      26.023   7.680 -13.366  0.00  0.00    -0.800 N 
ATOM     36  HN1 NHH A   8      25.041   7.443 -13.383  0.00  0.00     0.370 HD
ATOM     37  HN2 NHH A   8      26.297   8.445 -12.760  0.00  0.00     0.370 HD
ENDBRANCH  29  33
ENDBRANCH  27  29
ENDBRANCH  13  25
ENDBRANCH  11  13
ENDBRANCH   5   9
ENDBRANCH   3   5
BRANCH   1  38
ATOM     38  CA  ALA A   4      34.910   3.568 -11.230  0.00  0.00     0.361 C 
ATOM     39  CB  ALA A   4      35.029   4.797 -12.120  0.00  0.00     0.000 C 
BRANCH  38  40
ATOM     40  N   ALA A   4      35.888   2.547 -11.575  0.00  0.00    -0.730 N 
ATOM     41  HN  ALA A   4      35.892   2.238 -12.546  0.00  0.00     0.370 HD
ATOM     42  C   PHE A   3      36.575   1.830 -10.629  0.00  0.00     0.569 C 
ATOM     43  O   PHE A   3      36.514   2.072  -9.423  0.00  0.00    -0.570 OA
BRANCH  42  44
ATOM     44  CA  PHE A   3      37.431   0.670 -11.172  0.00  0.00     0.361 C 
BRANCH  44  45
ATOM     45  N   PHE A   3      36.553  -0.104 -12.057  0.00  0.00    -0.730 N 
ATOM     46  HN  PHE A   3      35.965   0.443 -12.683  0.00  0.00     0.370 HD
ATOM     47  C   ALA A   2      36.512  -1.471 -12.050  0.00  0.00     0.569 C 
ATOM     48  O   ALA A   2      37.225  -2.165 -11.322  0.00  0.00    -0.570 OA
BRANCH  47  49
ATOM     49  CA  ALA A   2      35.517  -2.114 -13.034  0.00  0.00     0.361 C 
ATOM     50  CB  ALA A   2      35.069  -1.124 -14.101  0.00  0.00     0.000 C 
BRANCH  49  51
ATOM     51  N   ALA A   2      34.376  -2.574 -12.233  0.00  0.00    -0.730 N 
ATOM     52  HN  ALA A   2      33.997  -1.870 -11.602  0.00  0.00     0.370 HD
ATOM     53  C   PRO A   1      33.991  -3.882 -12.177  0.00  0.00     0.569 C 
ATOM     54  O   PRO A   1      34.504  -4.787 -12.836  0.00  0.00    -0.570 OA
BRANCH  53  55
ATOM     55  CA  PRO A   1      32.822  -4.222 -11.239  0.00  0.00     0.564 C 
ATOM     56  CB  PRO A   1      31.684  -4.960 -11.931  0.00  0.00     0.000 C 
ATOM     57  CG  PRO A   1      30.747  -3.852 -12.387  0.00  0.00     0.000 C 
ATOM     58  CD  PRO A   1      30.770  -2.877 -11.229  0.00  0.00     0.503 C 
ATOM     59  N   PRO A   1      32.182  -2.921 -10.759  0.00  0.00    -0.906 N 
ATOM     60  H1  PRO A   1      32.277  -2.787  -9.746  0.00  0.00     0.450 HD
ATOM     61  H2  PRO A   1      32.730  -2.159 -11.207  0.00  0.00     0.450 HD
ENDBRANCH  53  55
ENDBRANCH  49  51
ENDBRANCH  47  49
ENDBRANCH  44  45
BRANCH  44  62
ATOM     62  CB  PHE A   3      38.653   1.202 -11.937  0.00  0.00     0.143 C 
BRANCH  62  63
ATOM     63  CG  PHE A   3      39.883   1.375 -11.081  0.00  0.00    -0.143 A 
ATOM     64  CD1 PHE A   3      39.933   0.831  -9.789  0.00  0.00     0.000 A 
ATOM     65  CE1 PHE A   3      41.086   0.956  -9.013  0.00  0.00     0.000 A 
ATOM     66  CZ  PHE A   3      42.196   1.627  -9.519  0.00  0.00     0.000 A 
ATOM     67  CE2 PHE A   3      42.155   2.179 -10.799  0.00  0.00     0.000 A 
ATOM     68  CD2 PHE A   3      41.004   2.057 -11.576  0.00  0.00     0.000 A 
ENDBRANCH  62  63
ENDBRANCH  44  62
ENDBRANCH  42  44
ENDBRANCH  38  40
ENDBRANCH   1  38
TORSDOF 21
ENDMDL
MODEL 6
REMARK VINA RESULT:     -10.2      2.431     10.405
REMARK  21 active torsions:
REMARK  status: ('A' for Active; 'I' for Inactive)
REMARK    1  A    between atoms: CA_2  and  C_3 
REMARK       I    between atoms: C_3  and  N_10 
REMARK    2  A    between atoms: CA_11  and  N_10 
REMARK    3  A    between atoms: CA_11  and  C_12 
REMARK       I    between atoms: C_12  and  N_16 
REMARK    4  A    between atoms: CA_17  and  N_16 
REMARK    5  A    between atoms: CA_17  and  CB_20 
REMARK    6  A    between atoms: CA_17  and  C_18 
REMARK       I    between atoms: C_18  and  N_28 
REMARK    7  A    between atoms: CB_20  and  CG_21 
REMARK    8  A    between atoms: CA_29  and  N_28 
REMARK    9  A    between atoms: CA_29  and  C_30 
REMARK       I    between atoms: C_30  and  N_34 
REMARK   10  A    between atoms: CA_35  and  N_34 
REMARK   11  A    between atoms: CA_35  and  CB_38 
REMARK   12  A    between atoms: CA_35  and  C_36 
REMARK       I    between atoms: C_36  and  N_42 
REMARK   13  A    between atoms: CB_38  and  OG_39 
REMARK   14  A    between atoms: CA_43  and  N_42 
REMARK   15  A    between atoms: CA_43  and  CB_46 
REMARK   16  A    between atoms: CA_43  and  C_44 
REMARK       I    between atoms: C_44  and  N_58 
REMARK   17  A    between atoms: CB_46  and  CG_47 
REMARK   18  A    between atoms: CA_59  and  N_58 
REMARK   19  A    between atoms: CA_59  and  CB_62 
REMARK   20  A    between atoms: CA_59  and  C_60 
REMARK       I    between atoms: C_60  and  N_66 
REMARK   21  A    between atoms: CB_62  and  OG_63 
ROOT
ATOM      1  C   ALA A   4      34.428   4.281 -12.010  0.00  0.00     0.569 C 
ATOM      2  O   ALA A   4      34.330   3.943 -13.190  0.00  0.00    -0.570 OA
ATOM      3  N   SER A   5      35.520   3.959 -11.244  0.00  0.00    -0.730 N 
ATOM      4  HN  SER A   5      35.521   4.140 -10.242  0.00  0.00     0.370 HD
ENDROOT
BRANCH   3   5
ATOM      5  CA  SER A   5      36.613   3.134 -11.766  0.00  0.00     0.361 C 
BRANCH   5   6
ATOM      6  CB  SER A   5      37.983   3.652 -11.304  0.00  0.00     0.280 C 
BRANCH   6   7
ATOM      7  OG  SER A   5      39.000   2.664 -11.467  0.00  0.00    -0.680 OA
ATOM      8  HG  SER A   5      38.624   1.819 -11.154  0.00  0.00     0.400 HD
ENDBRANCH   6   7
ENDBRANCH   5   6
BRANCH   5   9
ATOM      9  C   SER A   5      36.365   1.689 -11.296  0.00  0.00     0.569 C 
ATOM     10  O   SER A   5      35.840   1.444 -10.205  0.00  0.00    -0.570 OA
ATOM     11  N   TRP A   6      36.763   0.693 -12.158  0.00  0.00    -0.730 N 
ATOM     12  HN  TRP A   6      37.422   0.909 -12.895  0.00  0.00     0.370 HD
BRANCH  11  13
ATOM     13  CA  TRP A   6      36.633  -0.723 -11.790  0.00  0.00     0.361 C 
BRANCH  13  14
ATOM     14  CB  TRP A   6      35.921  -1.540 -12.876  0.00  0.00     0.181 C 
BRANCH  14  15
ATOM     15  CG  TRP A   6      34.862  -2.448 -12.323  0.00  0.00    -0.181 A 
ATOM     16  CD1 TRP A   6      34.867  -3.829 -12.358  0.00  0.00    -0.152 A 
ATOM     17  NE1 TRP A   6      33.723  -4.278 -11.752  0.00  0.00     0.033 N 
ATOM     18  CE2 TRP A   6      32.967  -3.216 -11.318  0.00  0.00    -0.152 A 
ATOM     19  HE1 TRP A   6      33.468  -5.248 -11.633  0.00  0.00     0.270 HD
ATOM     20  CD2 TRP A   6      33.659  -2.052 -11.654  0.00  0.00     0.000 A 
ATOM     21  CZ2 TRP A   6      31.734  -3.200 -10.653  0.00  0.00     0.000 A 
ATOM     22  CE3 TRP A   6      33.091  -0.809 -11.306  0.00  0.00     0.000 A 
ATOM     23  CZ3 TRP A   6      31.859  -0.775 -10.642  0.00  0.00     0.000 A 
ATOM     24  CH2 TRP A   6      31.191  -1.955 -10.323  0.00  0.00     0.000 A 
ENDBRANCH  14  15
ENDBRANCH  13  14
BRANCH  13  25
ATOM     25  C   TRP A   6      38.064  -1.256 -11.613  0.00  0.00     0.569 C 
ATOM     26  O   TRP A   6      38.320  -2.298 -11.013  0.00  0.00    -0.570 OA
ATOM     27  N   SER A   7      39.014  -0.547 -12.310  0.00  0.00    -0.730 N 
ATOM     28  HN  SER A   7      38.722   0.224 -12.909  0.00  0.00     0.370 HD
BRANCH  27  29
ATOM     29  CA  SER A   7      40.353  -1.074 -12.555  0.00  0.00     0.361 C 
BRANCH  29  30
ATOM     30  CB  SER A   7      40.471  -1.598 -13.996  0.00  0.00     0.280 C 
BRANCH  30  31
ATOM     31  OG  SER A   7      40.375  -0.545 -14.958  0.00  0.00    -0.680 OA
ATOM     32  HG  SER A   7      39.836   0.167 -14.551  0.00  0.00     0.400 HD
ENDBRANCH  30  31
ENDBRANCH  29  30
BRANCH  29  33
ATOM     33  C   SER A   7      41.373   0.042 -12.273  0.00  0.00     0.569 C 
ATOM     34  O   SER A   7      42.194   0.434 -13.103  0.00  0.00    -0.570 OA
ATOM     35  N   NHH A   8      41.314   0.638 -11.046  0.00  0.00    -0.800 N 
ATOM     36  HN1 NHH A   8      40.888   0.183 -10.250  0.00  0.00     0.370 HD
ATOM     37  HN2 NHH A   8      42.057   1.298 -10.848  0.00  0.00     0.370 HD
ENDBRANCH  29  33
ENDBRANCH  27  29
ENDBRANCH  13  25
ENDBRANCH  11  13
ENDBRANCH   5   9
ENDBRANCH   3   5
BRANCH   1  38
ATOM     38  CA  ALA A   4      33.332   5.079 -11.283  0.00  0.00     0.361 C 
ATOM     39  CB  ALA A   4      33.678   5.216  -9.807  0.00  0.00     0.000 C 
BRANCH  38  40
ATOM     40  N   ALA A   4      32.071   4.381 -11.485  0.00  0.00    -0.730 N 
ATOM     41  HN  ALA A   4      31.993   3.460 -11.057  0.00  0.00     0.370 HD
ATOM     42  C   PHE A   3      31.144   4.783 -12.412  0.00  0.00     0.569 C 
ATOM     43  O   PHE A   3      31.244   5.827 -13.059  0.00  0.00    -0.570 OA
BRANCH  42  44
ATOM     44  CA  PHE A   3      29.955   3.825 -12.615  0.00  0.00     0.361 C 
BRANCH  44  45
ATOM     45  N   PHE A   3      28.748   4.601 -12.312  0.00  0.00    -0.730 N 
ATOM     46  HN  PHE A   3      28.098   4.728 -13.086  0.00  0.00     0.370 HD
ATOM     47  C   ALA A   2      28.499   5.133 -11.076  0.00  0.00     0.569 C 
ATOM     48  O   ALA A   2      29.252   4.983 -10.112  0.00  0.00    -0.570 OA
BRANCH  47  49
ATOM     49  CA  ALA A   2      27.190   5.935 -10.946  0.00  0.00     0.361 C 
ATOM     50  CB  ALA A   2      26.844   6.203  -9.488  0.00  0.00     0.000 C 
BRANCH  49  51
ATOM     51  N   ALA A   2      26.145   5.136 -11.596  0.00  0.00    -0.730 N 
ATOM     52  HN  ALA A   2      26.106   4.166 -11.285  0.00  0.00     0.370 HD
ATOM     53  C   PRO A   1      25.431   5.583 -12.668  0.00  0.00     0.569 C 
ATOM     54  O   PRO A   1      25.534   6.712 -13.151  0.00  0.00    -0.570 OA
BRANCH  53  55
ATOM     55  CA  PRO A   1      24.419   4.606 -13.286  0.00  0.00     0.564 C 
ATOM     56  CB  PRO A   1      23.545   3.904 -12.254  0.00  0.00     0.000 C 
ATOM     57  CG  PRO A   1      24.302   2.624 -11.937  0.00  0.00     0.000 C 
ATOM     58  CD  PRO A   1      24.829   2.186 -13.287  0.00  0.00     0.503 C 
ATOM     59  N   PRO A   1      25.182   3.468 -13.959  0.00  0.00    -0.906 N 
ATOM     60  H1  PRO A   1      25.039   3.446 -14.976  0.00  0.00     0.450 HD
ATOM     61  H2  PRO A   1      26.189   3.682 -13.811  0.00  0.00     0.450 HD
ENDBRANCH  53  55
ENDBRANCH  49  51
ENDBRANCH  47  49
ENDBRANCH  44  45
BRANCH  44  62
ATOM     62  CB  PHE A   3      29.920   3.295 -14.058  0.00  0.00     0.143 C 
BRANCH  62  63
ATOM     63  CG  PHE A   3      29.385   1.889 -14.181  0.00  0.00    -0.143 A 
ATOM     64  CD1 PHE A   3      29.767   0.900 -13.262  0.00  0.00     0.000 A 
ATOM     65  CE1 PHE A   3      29.241  -0.389 -13.351  0.00  0.00     0.000 A 
ATOM     66  CZ  PHE A   3      28.333  -0.702 -14.359  0.00  0.00     0.000 A 
ATOM     67  CE2 PHE A   3      27.953   0.271 -15.284  0.00  0.00     0.000 A 
ATOM     68  CD2 PHE A   3      28.478   1.560 -15.198  0.00  0.00     0.000 A 
ENDBRANCH  62  63
ENDBRANCH  44  62
ENDBRANCH  42  44
ENDBRANCH  38  40
ENDBRANCH   1  38
TORSDOF 21
ENDMDL
MODEL 7
REMARK VINA RESULT:     -10.2      2.136      5.109
REMARK  21 active torsions:
REMARK  status: ('A' for Active; 'I' for Inactive)
REMARK    1  A    between atoms: CA_2  and  C_3 
REMARK       I    between atoms: C_3  and  N_10 
REMARK    2  A    between atoms: CA_11  and  N_10 
REMARK    3  A    between atoms: CA_11  and  C_12 
REMARK       I    between atoms: C_12  and  N_16 
REMARK    4  A    between atoms: CA_17  and  N_16 
REMARK    5  A    between atoms: CA_17  and  CB_20 
REMARK    6  A    between atoms: CA_17  and  C_18 
REMARK       I    between atoms: C_18  and  N_28 
REMARK    7  A    between atoms: CB_20  and  CG_21 
REMARK    8  A    between atoms: CA_29  and  N_28 
REMARK    9  A    between atoms: CA_29  and  C_30 
REMARK       I    between atoms: C_30  and  N_34 
REMARK   10  A    between atoms: CA_35  and  N_34 
REMARK   11  A    between atoms: CA_35  and  CB_38 
REMARK   12  A    between atoms: CA_35  and  C_36 
REMARK       I    between atoms: C_36  and  N_42 
REMARK   13  A    between atoms: CB_38  and  OG_39 
REMARK   14  A    between atoms: CA_43  and  N_42 
REMARK   15  A    between atoms: CA_43  and  CB_46 
REMARK   16  A    between atoms: CA_43  and  C_44 
REMARK       I    between atoms: C_44  and  N_58 
REMARK   17  A    between atoms: CB_46  and  CG_47 
REMARK   18  A    between atoms: CA_59  and  N_58 
REMARK   19  A    between atoms: CA_59  and  CB_62 
REMARK   20  A    between atoms: CA_59  and  C_60 
REMARK       I    between atoms: C_60  and  N_66 
REMARK   21  A    between atoms: CB_62  and  OG_63 
ROOT
ATOM      1  C   ALA A   4      32.373   2.199 -12.318  0.00  0.00     0.569 C 
ATOM      2  O   ALA A   4      32.013   2.937 -13.235  0.00  0.00    -0.570 OA
ATOM      3  N   SER A   5      31.488   1.426 -11.609  0.00  0.00    -0.730 N 
ATOM      4  HN  SER A   5      31.791   0.923 -10.777  0.00  0.00     0.370 HD
ENDROOT
BRANCH   3   5
ATOM      5  CA  SER A   5      30.044   1.482 -11.855  0.00  0.00     0.361 C 
BRANCH   5   6
ATOM      6  CB  SER A   5      29.381   0.114 -11.643  0.00  0.00     0.280 C 
BRANCH   6   7
ATOM      7  OG  SER A   5      28.400   0.161 -10.608  0.00  0.00    -0.680 OA
ATOM      8  HG  SER A   5      28.346  -0.737 -10.231  0.00  0.00     0.400 HD
ENDBRANCH   6   7
ENDBRANCH   5   6
BRANCH   5   9
ATOM      9  C   SER A   5      29.456   2.549 -10.915  0.00  0.00     0.569 C 
ATOM     10  O   SER A   5      29.957   2.786  -9.811  0.00  0.00    -0.570 OA
ATOM     11  N   TRP A   6      28.345   3.218 -11.373  0.00  0.00    -0.730 N 
ATOM     12  HN  TRP A   6      27.807   2.822 -12.135  0.00  0.00     0.370 HD
BRANCH  11  13
ATOM     13  CA  TRP A   6      27.661   4.214 -10.538  0.00  0.00     0.361 C 
BRANCH  13  14
ATOM     14  CB  TRP A   6      27.647   5.604 -11.187  0.00  0.00     0.181 C 
BRANCH  14  15
ATOM     15  CG  TRP A   6      27.464   5.552 -12.675  0.00  0.00    -0.181 A 
ATOM     16  CD1 TRP A   6      26.262   5.451 -13.349  0.00  0.00    -0.152 A 
ATOM     17  NE1 TRP A   6      26.525   5.431 -14.693  0.00  0.00     0.033 N 
ATOM     18  CE2 TRP A   6      27.878   5.517 -14.915  0.00  0.00    -0.152 A 
ATOM     19  HE1 TRP A   6      25.829   5.367 -15.423  0.00  0.00     0.270 HD
ATOM     20  CD2 TRP A   6      28.496   5.603 -13.667  0.00  0.00     0.000 A 
ATOM     21  CZ2 TRP A   6      28.595   5.531 -16.118  0.00  0.00     0.000 A 
ATOM     22  CE3 TRP A   6      29.901   5.710 -13.619  0.00  0.00     0.000 A 
ATOM     23  CZ3 TRP A   6      30.633   5.724 -14.813  0.00  0.00     0.000 A 
ATOM     24  CH2 TRP A   6      29.987   5.635 -16.043  0.00  0.00     0.000 A 
ENDBRANCH  14  15
ENDBRANCH  13  14
BRANCH  13  25
ATOM     25  C   TRP A   6      26.215   3.719 -10.372  0.00  0.00     0.569 C 
ATOM     26  O   TRP A   6      25.332   4.397  -9.850  0.00  0.00    -0.570 OA
ATOM     27  N   SER A   7      25.963   2.517 -10.991  0.00  0.00    -0.730 N 
ATOM     28  HN  SER A   7      26.699   2.069 -11.534  0.00  0.00     0.370 HD
BRANCH  27  29
ATOM     29  CA  SER A   7      24.605   2.045 -11.247  0.00  0.00     0.361 C 
BRANCH  29  30
ATOM     30  CB  SER A   7      24.011   2.754 -12.475  0.00  0.00     0.280 C 
BRANCH  30  31
ATOM     31  OG  SER A   7      24.689   2.394 -13.682  0.00  0.00    -0.680 OA
ATOM     32  HG  SER A   7      24.348   2.982 -14.388  0.00  0.00     0.400 HD
ENDBRANCH  30  31
ENDBRANCH  29  30
BRANCH  29  33
ATOM     33  C   SER A   7      24.649   0.520 -11.440  0.00  0.00     0.569 C 
ATOM     34  O   SER A   7      23.884  -0.090 -12.187  0.00  0.00    -0.570 OA
ATOM     35  N   NHH A   8      25.624  -0.160 -10.767  0.00  0.00    -0.800 N 
ATOM     36  HN1 NHH A   8      26.069   0.219  -9.943  0.00  0.00     0.370 HD
ATOM     37  HN2 NHH A   8      25.570  -1.171 -10.830  0.00  0.00     0.370 HD
ENDBRANCH  29  33
ENDBRANCH  27  29
ENDBRANCH  13  25
ENDBRANCH  11  13
ENDBRANCH   5   9
ENDBRANCH   3   5
BRANCH   1  38
ATOM     38  CA  ALA A   4      33.841   2.084 -11.874  0.00  0.00     0.361 C 
ATOM     39  CB  ALA A   4      34.592   3.364 -12.217  0.00  0.00     0.000 C 
BRANCH  38  40
ATOM     40  N   ALA A   4      34.413   0.922 -12.536  0.00  0.00    -0.730 N 
ATOM     41  HN  ALA A   4      34.173   0.801 -13.519  0.00  0.00     0.370 HD
ATOM     42  C   PHE A   3      35.005  -0.106 -11.847  0.00  0.00     0.569 C 
ATOM     43  O   PHE A   3      35.208  -0.076 -10.633  0.00  0.00    -0.570 OA
BRANCH  42  44
ATOM     44  CA  PHE A   3      35.389  -1.334 -12.694  0.00  0.00     0.361 C 
BRANCH  44  45
ATOM     45  N   PHE A   3      36.816  -1.186 -13.002  0.00  0.00    -0.730 N 
ATOM     46  HN  PHE A   3      37.452  -1.715 -12.408  0.00  0.00     0.370 HD
ATOM     47  C   ALA A   2      37.278  -0.389 -14.013  0.00  0.00     0.569 C 
ATOM     48  O   ALA A   2      36.537   0.247 -14.765  0.00  0.00    -0.570 OA
BRANCH  47  49
ATOM     49  CA  ALA A   2      38.809  -0.341 -14.179  0.00  0.00     0.361 C 
ATOM     50  CB  ALA A   2      39.306  -1.454 -15.092  0.00  0.00     0.000 C 
BRANCH  49  51
ATOM     51  N   ALA A   2      39.379  -0.473 -12.833  0.00  0.00    -0.730 N 
ATOM     52  HN  ALA A   2      38.715  -0.791 -12.127  0.00  0.00     0.370 HD
ATOM     53  C   PRO A   1      40.619  -0.010 -12.506  0.00  0.00     0.569 C 
ATOM     54  O   PRO A   1      41.407   0.493 -13.307  0.00  0.00    -0.570 OA
BRANCH  53  55
ATOM     55  CA  PRO A   1      41.051  -0.156 -11.038  0.00  0.00     0.564 C 
ATOM     56  CB  PRO A   1      39.898  -0.027 -10.051  0.00  0.00     0.000 C 
ATOM     57  CG  PRO A   1      39.874   1.452  -9.699  0.00  0.00     0.000 C 
ATOM     58  CD  PRO A   1      41.342   1.810  -9.598  0.00  0.00     0.503 C 
ATOM     59  N   PRO A   1      41.976   1.005 -10.679  0.00  0.00    -0.906 N 
ATOM     60  H1  PRO A   1      42.926   0.693 -10.449  0.00  0.00     0.450 HD
ATOM     61  H2  PRO A   1      42.058   1.574 -11.546  0.00  0.00     0.450 HD
ENDBRANCH  53  55
ENDBRANCH  49  51
ENDBRANCH  47  49
ENDBRANCH  44  45
BRANCH  44  62
ATOM     62  CB  PHE A   3      35.125  -2.636 -11.922  0.00  0.00     0.143 C 
BRANCH  62  63
ATOM     63  CG  PHE A   3      33.741  -3.200 -12.128  0.00  0.00    -0.143 A 
ATOM     64  CD1 PHE A   3      33.466  -4.541 -11.824  0.00  0.00     0.000 A 
ATOM     65  CE1 PHE A   3      32.176  -5.051 -11.976  0.00  0.00     0.000 A 
ATOM     66  CZ  PHE A   3      31.152  -4.227 -12.435  0.00  0.00     0.000 A 
ATOM     67  CE2 PHE A   3      31.415  -2.894 -12.749  0.00  0.00     0.000 A 
ATOM     68  CD2 PHE A   3      32.704  -2.382 -12.599  0.00  0.00     0.000 A 
ENDBRANCH  62  63
ENDBRANCH  44  62
ENDBRANCH  42  44
ENDBRANCH  38  40
ENDBRANCH   1  38
TORSDOF 21
ENDMDL
MODEL 8
REMARK VINA RESULT:     -10.1      3.259     11.286
REMARK  21 active torsions:
REMARK  status: ('A' for Active; 'I' for Inactive)
REMARK    1  A    between atoms: CA_2  and  C_3 
REMARK       I    between atoms: C_3  and  N_10 
REMARK    2  A    between atoms: CA_11  and  N_10 
REMARK    3  A    between atoms: CA_11  and  C_12 
REMARK       I    between atoms: C_12  and  N_16 
REMARK    4  A    between atoms: CA_17  and  N_16 
REMARK    5  A    between atoms: CA_17  and  CB_20 
REMARK    6  A    between atoms: CA_17  and  C_18 
REMARK       I    between atoms: C_18  and  N_28 
REMARK    7  A    between atoms: CB_20  and  CG_21 
REMARK    8  A    between atoms: CA_29  and  N_28 
REMARK    9  A    between atoms: CA_29  and  C_30 
REMARK       I    between atoms: C_30  and  N_34 
REMARK   10  A    between atoms: CA_35  and  N_34 
REMARK   11  A    between atoms: CA_35  and  CB_38 
REMARK   12  A    between atoms: CA_35  and  C_36 
REMARK       I    between atoms: C_36  and  N_42 
REMARK   13  A    between atoms: CB_38  and  OG_39 
REMARK   14  A    between atoms: CA_43  and  N_42 
REMARK   15  A    between atoms: CA_43  and  CB_46 
REMARK   16  A    between atoms: CA_43  and  C_44 
REMARK       I    between atoms: C_44  and  N_58 
REMARK   17  A    between atoms: CB_46  and  CG_47 
REMARK   18  A    between atoms: CA_59  and  N_58 
REMARK   19  A    between atoms: CA_59  and  CB_62 
REMARK   20  A    between atoms: CA_59  and  C_60 
REMARK       I    between atoms: C_60  and  N_66 
REMARK   21  A    between atoms: CB_62  and  OG_63 
ROOT
ATOM      1  C   ALA A   4      34.222   4.031 -12.011  0.00  0.00     0.569 C 
ATOM      2  O   ALA A   4      34.171   3.493 -13.117  0.00  0.00    -0.570 OA
ATOM      3  N   SER A   5      35.360   4.023 -11.244  0.00  0.00    -0.730 N 
ATOM      4  HN  SER A   5      35.339   4.363 -10.284  0.00  0.00     0.370 HD
ENDROOT
BRANCH   3   5
ATOM      5  CA  SER A   5      36.570   3.312 -11.666  0.00  0.00     0.361 C 
BRANCH   5   6
ATOM      6  CB  SER A   5      37.839   4.104 -11.320  0.00  0.00     0.280 C 
BRANCH   6   7
ATOM      7  OG  SER A   5      38.766   3.311 -10.579  0.00  0.00    -0.680 OA
ATOM      8  HG  SER A   5      38.950   2.517 -11.116  0.00  0.00     0.400 HD
ENDBRANCH   6   7
ENDBRANCH   5   6
BRANCH   5   9
ATOM      9  C   SER A   5      36.558   1.933 -10.984  0.00  0.00     0.569 C 
ATOM     10  O   SER A   5      36.151   1.787  -9.827  0.00  0.00    -0.570 OA
ATOM     11  N   TRP A   6      37.025   0.879 -11.734  0.00  0.00    -0.730 N 
ATOM     12  HN  TRP A   6      37.594   1.066 -12.551  0.00  0.00     0.370 HD
BRANCH  11  13
ATOM     13  CA  TRP A   6      37.118  -0.472 -11.167  0.00  0.00     0.361 C 
BRANCH  13  14
ATOM     14  CB  TRP A   6      36.440  -1.522 -12.056  0.00  0.00     0.181 C 
BRANCH  14  15
ATOM     15  CG  TRP A   6      34.979  -1.684 -11.759  0.00  0.00    -0.181 A 
ATOM     16  CD1 TRP A   6      34.110  -0.687 -11.358  0.00  0.00    -0.152 A 
ATOM     17  NE1 TRP A   6      32.869  -1.242 -11.189  0.00  0.00     0.033 N 
ATOM     18  CE2 TRP A   6      32.907  -2.587 -11.472  0.00  0.00    -0.152 A 
ATOM     19  HE1 TRP A   6      32.039  -0.742 -10.902  0.00  0.00     0.270 HD
ATOM     20  CD2 TRP A   6      34.217  -2.893 -11.841  0.00  0.00     0.000 A 
ATOM     21  CZ2 TRP A   6      31.886  -3.545 -11.433  0.00  0.00     0.000 A 
ATOM     22  CE3 TRP A   6      34.521  -4.225 -12.193  0.00  0.00     0.000 A 
ATOM     23  CZ3 TRP A   6      33.512  -5.195 -12.159  0.00  0.00     0.000 A 
ATOM     24  CH2 TRP A   6      32.214  -4.857 -11.784  0.00  0.00     0.000 A 
ENDBRANCH  14  15
ENDBRANCH  13  14
BRANCH  13  25
ATOM     25  C   TRP A   6      38.619  -0.793 -11.060  0.00  0.00     0.569 C 
ATOM     26  O   TRP A   6      39.097  -1.874 -11.401  0.00  0.00    -0.570 OA
ATOM     27  N   SER A   7      39.394   0.281 -10.692  0.00  0.00    -0.730 N 
ATOM     28  HN  SER A   7      38.957   1.192 -10.562  0.00  0.00     0.370 HD
BRANCH  27  29
ATOM     29  CA  SER A   7      40.843   0.287 -10.862  0.00  0.00     0.361 C 
BRANCH  29  30
ATOM     30  CB  SER A   7      41.216   0.681 -12.301  0.00  0.00     0.280 C 
BRANCH  30  31
ATOM     31  OG  SER A   7      40.510   1.845 -12.737  0.00  0.00    -0.680 OA
ATOM     32  HG  SER A   7      39.634   1.831 -12.295  0.00  0.00     0.400 HD
ENDBRANCH  30  31
ENDBRANCH  29  30
BRANCH  29  33
ATOM     33  C   SER A   7      41.449   1.258  -9.834  0.00  0.00     0.569 C 
ATOM     34  O   SER A   7      41.616   0.971  -8.648  0.00  0.00    -0.570 OA
ATOM     35  N   NHH A   8      41.851   2.478 -10.298  0.00  0.00    -0.800 N 
ATOM     36  HN1 NHH A   8      41.483   2.873 -11.153  0.00  0.00     0.370 HD
ATOM     37  HN2 NHH A   8      42.153   3.134  -9.587  0.00  0.00     0.370 HD
ENDBRANCH  29  33
ENDBRANCH  27  29
ENDBRANCH  13  25
ENDBRANCH  11  13
ENDBRANCH   5   9
ENDBRANCH   3   5
BRANCH   1  38
ATOM     38  CA  ALA A   4      33.015   4.748 -11.381  0.00  0.00     0.361 C 
ATOM     39  CB  ALA A   4      33.092   4.665  -9.863  0.00  0.00     0.000 C 
BRANCH  38  40
ATOM     40  N   ALA A   4      31.809   4.122 -11.902  0.00  0.00    -0.730 N 
ATOM     41  HN  ALA A   4      31.928   3.206 -12.333  0.00  0.00     0.370 HD
ATOM     42  C   PHE A   3      30.632   4.806 -12.069  0.00  0.00     0.569 C 
ATOM     43  O   PHE A   3      30.464   5.963 -11.683  0.00  0.00    -0.570 OA
BRANCH  42  44
ATOM     44  CA  PHE A   3      29.517   4.034 -12.799  0.00  0.00     0.361 C 
BRANCH  44  45
ATOM     45  N   PHE A   3      28.594   5.047 -13.322  0.00  0.00    -0.730 N 
ATOM     46  HN  PHE A   3      29.029   5.889 -13.695  0.00  0.00     0.370 HD
ATOM     47  C   ALA A   2      27.236   4.890 -13.310  0.00  0.00     0.569 C 
ATOM     48  O   ALA A   2      26.677   3.876 -12.887  0.00  0.00    -0.570 OA
BRANCH  47  49
ATOM     49  CA  ALA A   2      26.422   6.066 -13.883  0.00  0.00     0.361 C 
ATOM     50  CB  ALA A   2      27.317   7.060 -14.612  0.00  0.00     0.000 C 
BRANCH  49  51
ATOM     51  N   ALA A   2      25.750   6.702 -12.744  0.00  0.00    -0.730 N 
ATOM     52  HN  ALA A   2      26.107   6.415 -11.834  0.00  0.00     0.370 HD
ATOM     53  C   PRO A   1      24.613   7.443 -12.876  0.00  0.00     0.569 C 
ATOM     54  O   PRO A   1      24.080   7.713 -13.953  0.00  0.00    -0.570 OA
BRANCH  53  55
ATOM     55  CA  PRO A   1      23.984   7.987 -11.584  0.00  0.00     0.564 C 
ATOM     56  CB  PRO A   1      22.487   7.725 -11.480  0.00  0.00     0.000 C 
ATOM     57  CG  PRO A   1      21.851   8.966 -12.087  0.00  0.00     0.000 C 
ATOM     58  CD  PRO A   1      22.723  10.092 -11.572  0.00  0.00     0.503 C 
ATOM     59  N   PRO A   1      24.094   9.510 -11.586  0.00  0.00    -0.906 N 
ATOM     60  H1  PRO A   1      24.691   9.861 -10.828  0.00  0.00     0.450 HD
ATOM     61  H2  PRO A   1      24.576   9.753 -12.475  0.00  0.00     0.450 HD
ENDBRANCH  53  55
ENDBRANCH  49  51
ENDBRANCH  47  49
ENDBRANCH  44  45
BRANCH  44  62
ATOM     62  CB  PHE A   3      30.098   3.179 -13.938  0.00  0.00     0.143 C 
BRANCH  62  63
ATOM     63  CG  PHE A   3      29.406   1.851 -14.121  0.00  0.00    -0.143 A 
ATOM     64  CD1 PHE A   3      28.505   1.659 -15.178  0.00  0.00     0.000 A 
ATOM     65  CE1 PHE A   3      27.896   0.419 -15.372  0.00  0.00     0.000 A 
ATOM     66  CZ  PHE A   3      28.179  -0.638 -14.510  0.00  0.00     0.000 A 
ATOM     67  CE2 PHE A   3      29.066  -0.455 -13.449  0.00  0.00     0.000 A 
ATOM     68  CD2 PHE A   3      29.676   0.784 -13.253  0.00  0.00     0.000 A 
ENDBRANCH  62  63
ENDBRANCH  44  62
ENDBRANCH  42  44
ENDBRANCH  38  40
ENDBRANCH   1  38
TORSDOF 21
ENDMDL
MODEL 9
REMARK VINA RESULT:     -10.1      1.578      2.079
REMARK  21 active torsions:
REMARK  status: ('A' for Active; 'I' for Inactive)
REMARK    1  A    between atoms: CA_2  and  C_3 
REMARK       I    between atoms: C_3  and  N_10 
REMARK    2  A    between atoms: CA_11  and  N_10 
REMARK    3  A    between atoms: CA_11  and  C_12 
REMARK       I    between atoms: C_12  and  N_16 
REMARK    4  A    between atoms: CA_17  and  N_16 
REMARK    5  A    between atoms: CA_17  and  CB_20 
REMARK    6  A    between atoms: CA_17  and  C_18 
REMARK       I    between atoms: C_18  and  N_28 
REMARK    7  A    between atoms: CB_20  and  CG_21 
REMARK    8  A    between atoms: CA_29  and  N_28 
REMARK    9  A    between atoms: CA_29  and  C_30 
REMARK       I    between atoms: C_30  and  N_34 
REMARK   10  A    between atoms: CA_35  and  N_34 
REMARK   11  A    between atoms: CA_35  and  CB_38 
REMARK   12  A    between atoms: CA_35  and  C_36 
REMARK       I    between atoms: C_36  and  N_42 
REMARK   13  A    between atoms: CB_38  and  OG_39 
REMARK   14  A    between atoms: CA_43  and  N_42 
REMARK   15  A    between atoms: CA_43  and  CB_46 
REMARK   16  A    between atoms: CA_43  and  C_44 
REMARK       I    between atoms: C_44  and  N_58 
REMARK   17  A    between atoms: CB_46  and  CG_47 
REMARK   18  A    between atoms: CA_59  and  N_58 
REMARK   19  A    between atoms: CA_59  and  CB_62 
REMARK   20  A    between atoms: CA_59  and  C_60 
REMARK       I    between atoms: C_60  and  N_66 
REMARK   21  A    between atoms: CB_62  and  OG_63 
ROOT
ATOM      1  C   ALA A   4      33.157   3.465 -11.532  0.00  0.00     0.569 C 
ATOM      2  O   ALA A   4      32.732   3.811 -12.634  0.00  0.00    -0.570 OA
ATOM      3  N   SER A   5      32.456   2.618 -10.710  0.00  0.00    -0.730 N 
ATOM      4  HN  SER A   5      32.767   2.448  -9.756  0.00  0.00     0.370 HD
ENDROOT
BRANCH   3   5
ATOM      5  CA  SER A   5      31.124   2.122 -11.068  0.00  0.00     0.361 C 
BRANCH   5   6
ATOM      6  CB  SER A   5      30.930   0.662 -10.636  0.00  0.00     0.280 C 
BRANCH   6   7
ATOM      7  OG  SER A   5      29.704   0.482  -9.928  0.00  0.00    -0.680 OA
ATOM      8  HG  SER A   5      29.874  -0.185  -9.237  0.00  0.00     0.400 HD
ENDBRANCH   6   7
ENDBRANCH   5   6
BRANCH   5   9
ATOM      9  C   SER A   5      30.092   3.052 -10.404  0.00  0.00     0.569 C 
ATOM     10  O   SER A   5      30.247   3.473  -9.254  0.00  0.00    -0.570 OA
ATOM     11  N   TRP A   6      28.994   3.382 -11.164  0.00  0.00    -0.730 N 
ATOM     12  HN  TRP A   6      28.762   2.817 -11.972  0.00  0.00     0.370 HD
BRANCH  11  13
ATOM     13  CA  TRP A   6      27.914   4.212 -10.615  0.00  0.00     0.361 C 
BRANCH  13  14
ATOM     14  CB  TRP A   6      27.797   5.561 -11.334  0.00  0.00     0.181 C 
BRANCH  14  15
ATOM     15  CG  TRP A   6      28.906   5.798 -12.316  0.00  0.00    -0.181 A 
ATOM     16  CD1 TRP A   6      30.158   6.307 -12.030  0.00  0.00    -0.152 A 
ATOM     17  NE1 TRP A   6      30.873   6.370 -13.197  0.00  0.00     0.033 N 
ATOM     18  CE2 TRP A   6      30.113   5.909 -14.246  0.00  0.00    -0.152 A 
ATOM     19  HE1 TRP A   6      31.824   6.700 -13.283  0.00  0.00     0.270 HD
ATOM     20  CD2 TRP A   6      28.874   5.535 -13.724  0.00  0.00     0.000 A 
ATOM     21  CZ2 TRP A   6      30.430   5.793 -15.605  0.00  0.00     0.000 A 
ATOM     22  CE3 TRP A   6      27.905   5.014 -14.605  0.00  0.00     0.000 A 
ATOM     23  CZ3 TRP A   6      28.204   4.893 -15.967  0.00  0.00     0.000 A 
ATOM     24  CH2 TRP A   6      29.449   5.278 -16.458  0.00  0.00     0.000 A 
ENDBRANCH  14  15
ENDBRANCH  13  14
BRANCH  13  25
ATOM     25  C   TRP A   6      26.613   3.416 -10.816  0.00  0.00     0.569 C 
ATOM     26  O   TRP A   6      25.498   3.902 -10.635  0.00  0.00    -0.570 OA
ATOM     27  N   SER A   7      26.802   2.167 -11.357  0.00  0.00    -0.730 N 
ATOM     28  HN  SER A   7      27.740   1.873 -11.622  0.00  0.00     0.370 HD
BRANCH  27  29
ATOM     29  CA  SER A   7      25.705   1.398 -11.938  0.00  0.00     0.361 C 
BRANCH  29  30
ATOM     30  CB  SER A   7      25.773   1.439 -13.474  0.00  0.00     0.280 C 
BRANCH  30  31
ATOM     31  OG  SER A   7      26.099   0.161 -14.029  0.00  0.00    -0.680 OA
ATOM     32  HG  SER A   7      26.852   0.300 -14.642  0.00  0.00     0.400 HD
ENDBRANCH  30  31
ENDBRANCH  29  30
BRANCH  29  33
ATOM     33  C   SER A   7      25.785  -0.042 -11.405  0.00  0.00     0.569 C 
ATOM     34  O   SER A   7      24.838  -0.828 -11.436  0.00  0.00    -0.570 OA
ATOM     35  N   NHH A   8      26.992  -0.454 -10.916  0.00  0.00    -0.800 N 
ATOM     36  HN1 NHH A   8      27.692   0.201 -10.597  0.00  0.00     0.370 HD
ATOM     37  HN2 NHH A   8      26.993  -1.370 -10.481  0.00  0.00     0.370 HD
ENDBRANCH  29  33
ENDBRANCH  27  29
ENDBRANCH  13  25
ENDBRANCH  11  13
ENDBRANCH   5   9
ENDBRANCH   3   5
BRANCH   1  38
ATOM     38  CA  ALA A   4      34.499   3.961 -10.967  0.00  0.00     0.361 C 
ATOM     39  CB  ALA A   4      35.168   4.902 -11.960  0.00  0.00     0.000 C 
BRANCH  38  40
ATOM     40  N   ALA A   4      35.318   2.791 -10.687  0.00  0.00    -0.730 N 
ATOM     41  HN  ALA A   4      35.526   2.612  -9.705  0.00  0.00     0.370 HD
ATOM     42  C   PHE A   3      36.008   2.120 -11.664  0.00  0.00     0.569 C 
ATOM     43  O   PHE A   3      35.898   2.373 -12.864  0.00  0.00    -0.570 OA
BRANCH  42  44
ATOM     44  CA  PHE A   3      36.964   1.021 -11.160  0.00  0.00     0.361 C 
BRANCH  44  45
ATOM     45  N   PHE A   3      36.525  -0.225 -11.799  0.00  0.00    -0.730 N 
ATOM     46  HN  PHE A   3      37.148  -0.597 -12.513  0.00  0.00     0.370 HD
ATOM     47  C   ALA A   2      35.356  -0.854 -11.472  0.00  0.00     0.569 C 
ATOM     48  O   ALA A   2      34.589  -0.444 -10.598  0.00  0.00    -0.570 OA
BRANCH  47  49
ATOM     49  CA  ALA A   2      35.048  -2.142 -12.259  0.00  0.00     0.361 C 
ATOM     50  CB  ALA A   2      34.938  -1.869 -13.753  0.00  0.00     0.000 C 
BRANCH  49  51
ATOM     51  N   ALA A   2      33.783  -2.664 -11.726  0.00  0.00    -0.730 N 
ATOM     52  HN  ALA A   2      33.222  -1.974 -11.229  0.00  0.00     0.370 HD
ATOM     53  C   PRO A   1      33.481  -3.994 -11.709  0.00  0.00     0.569 C 
ATOM     54  O   PRO A   1      34.191  -4.875 -12.194  0.00  0.00    -0.570 OA
BRANCH  53  55
ATOM     55  CA  PRO A   1      32.149  -4.395 -11.055  0.00  0.00     0.564 C 
ATOM     56  CB  PRO A   1      31.114  -4.903 -12.048  0.00  0.00     0.000 C 
ATOM     57  CG  PRO A   1      30.330  -3.659 -12.437  0.00  0.00     0.000 C 
ATOM     58  CD  PRO A   1      30.199  -2.907 -11.129  0.00  0.00     0.503 C 
ATOM     59  N   PRO A   1      31.503  -3.149 -10.452  0.00  0.00    -0.906 N 
ATOM     60  H1  PRO A   1      31.425  -3.203  -9.429  0.00  0.00     0.450 HD
ATOM     61  H2  PRO A   1      32.160  -2.369 -10.654  0.00  0.00     0.450 HD
ENDBRANCH  53  55
ENDBRANCH  49  51
ENDBRANCH  47  49
ENDBRANCH  44  45
BRANCH  44  62
ATOM     62  CB  PHE A   3      38.419   1.348 -11.534  0.00  0.00     0.143 C 
BRANCH  62  63
ATOM     63  CG  PHE A   3      39.346   1.454 -10.348  0.00  0.00    -0.143 A 
ATOM     64  CD1 PHE A   3      40.707   1.143 -10.479  0.00  0.00     0.000 A 
ATOM     65  CE1 PHE A   3      41.572   1.280  -9.393  0.00  0.00     0.000 A 
ATOM     66  CZ  PHE A   3      41.084   1.726  -8.167  0.00  0.00     0.000 A 
ATOM     67  CE2 PHE A   3      39.731   2.029  -8.023  0.00  0.00     0.000 A 
ATOM     68  CD2 PHE A   3      38.864   1.892  -9.107  0.00  0.00     0.000 A 
ENDBRANCH  62  63
ENDBRANCH  44  62
ENDBRANCH  42  44
ENDBRANCH  38  40
ENDBRANCH   1  38
TORSDOF 21
ENDMDL
